
---------- Begin Simulation Statistics ----------
final_tick                                   51190000                       # Number of ticks from beginning of simulation (restored from checkpoints and never reset)
host_inst_rate                                 157082                       # Simulator instruction rate (inst/s)
host_mem_usage                                 818360                       # Number of bytes of host memory used
host_op_rate                                   159446                       # Simulator op (including micro ops) rate (op/s)
host_seconds                                     0.45                       # Real time elapsed on the host
host_tick_rate                              114755372                       # Simulator tick rate (ticks/s)
sim_freq                                 1000000000000                       # Frequency of simulated ticks
sim_insts                                       70048                       # Number of instructions simulated
sim_ops                                         71123                       # Number of ops (including micro ops) simulated
sim_seconds                                  0.000051                       # Number of seconds simulated
sim_ticks                                    51190000                       # Number of ticks simulated
system.cpu.branchPred.BTBCorrect                    0                       # Number of correct BTB predictions (this stat may not work properly.
system.cpu.branchPred.BTBHitPct             95.449650                       # BTB Hit Percentage
system.cpu.branchPred.BTBHits                    7090                       # Number of BTB hits
system.cpu.branchPred.BTBLookups                 7428                       # Number of BTB lookups
system.cpu.branchPred.RASInCorrect                  0                       # Number of incorrect RAS predictions.
system.cpu.branchPred.condIncorrect               752                       # Number of conditional branches incorrect
system.cpu.branchPred.condPredicted              8644                       # Number of conditional branches predicted
system.cpu.branchPred.indirectHits                  0                       # Number of indirect target hits.
system.cpu.branchPred.indirectLookups              77                       # Number of indirect predictor lookups.
system.cpu.branchPred.indirectMisses               77                       # Number of indirect misses.
system.cpu.branchPred.lookups                    9419                       # Number of BP lookups
system.cpu.branchPred.usedRAS                     250                       # Number of times the RAS was used to get a target.
system.cpu.branchPredindirectMispredicted           35                       # Number of mispredicted indirect branches.
system.cpu.cc_regfile_reads                     21765                       # number of cc regfile reads
system.cpu.cc_regfile_writes                    21732                       # number of cc regfile writes
system.cpu.commit.amos                              0                       # Number of atomic instructions committed
system.cpu.commit.branchMispredicts               598                       # The number of times a branch was mispredicted
system.cpu.commit.branches                       7772                       # Number of branches committed
system.cpu.commit.bw_lim_events                  6428                       # number cycles where commit BW limit reached
system.cpu.commit.commitNonSpecStalls              22                       # The number of times commit has been forced to stall to communicate backwards
system.cpu.commit.commitSquashedInsts            3701                       # The number of squashed insts skipped by commit
system.cpu.commit.committedInsts                70065                       # Number of instructions committed
system.cpu.commit.committedOps                  71140                       # Number of ops (including micro ops) committed
system.cpu.commit.committed_per_cycle::samples        80517                       # Number of insts commited each cycle
system.cpu.commit.committed_per_cycle::mean     0.883540                       # Number of insts commited each cycle
system.cpu.commit.committed_per_cycle::stdev     2.172572                       # Number of insts commited each cycle
system.cpu.commit.committed_per_cycle::underflows            0      0.00%      0.00% # Number of insts commited each cycle
system.cpu.commit.committed_per_cycle::0        57695     71.66%     71.66% # Number of insts commited each cycle
system.cpu.commit.committed_per_cycle::1        14574     18.10%     89.76% # Number of insts commited each cycle
system.cpu.commit.committed_per_cycle::2         1043      1.30%     91.05% # Number of insts commited each cycle
system.cpu.commit.committed_per_cycle::3          306      0.38%     91.43% # Number of insts commited each cycle
system.cpu.commit.committed_per_cycle::4          290      0.36%     91.79% # Number of insts commited each cycle
system.cpu.commit.committed_per_cycle::5          126      0.16%     91.95% # Number of insts commited each cycle
system.cpu.commit.committed_per_cycle::6           37      0.05%     91.99% # Number of insts commited each cycle
system.cpu.commit.committed_per_cycle::7           18      0.02%     92.02% # Number of insts commited each cycle
system.cpu.commit.committed_per_cycle::8         6428      7.98%    100.00% # Number of insts commited each cycle
system.cpu.commit.committed_per_cycle::overflows            0      0.00%    100.00% # Number of insts commited each cycle
system.cpu.commit.committed_per_cycle::min_value            0                       # Number of insts commited each cycle
system.cpu.commit.committed_per_cycle::max_value            8                       # Number of insts commited each cycle
system.cpu.commit.committed_per_cycle::total        80517                       # Number of insts commited each cycle
system.cpu.commit.fp_insts                          0                       # Number of committed floating point instructions.
system.cpu.commit.function_calls                  111                       # Number of function calls committed.
system.cpu.commit.int_insts                     44626                       # Number of committed integer instructions.
system.cpu.commit.loads                         20015                       # Number of loads committed
system.cpu.commit.membars                          14                       # Number of memory barriers committed
system.cpu.commit.op_class_0::No_OpClass            2      0.00%      0.00% # Class of committed instruction
system.cpu.commit.op_class_0::IntAlu            11487     16.15%     16.15% # Class of committed instruction
system.cpu.commit.op_class_0::IntMult               3      0.00%     16.15% # Class of committed instruction
system.cpu.commit.op_class_0::IntDiv                2      0.00%     16.16% # Class of committed instruction
system.cpu.commit.op_class_0::FloatAdd              0      0.00%     16.16% # Class of committed instruction
system.cpu.commit.op_class_0::FloatCmp              0      0.00%     16.16% # Class of committed instruction
system.cpu.commit.op_class_0::FloatCvt              0      0.00%     16.16% # Class of committed instruction
system.cpu.commit.op_class_0::FloatMult             0      0.00%     16.16% # Class of committed instruction
system.cpu.commit.op_class_0::FloatMultAcc            0      0.00%     16.16% # Class of committed instruction
system.cpu.commit.op_class_0::FloatDiv              0      0.00%     16.16% # Class of committed instruction
system.cpu.commit.op_class_0::FloatMisc             0      0.00%     16.16% # Class of committed instruction
system.cpu.commit.op_class_0::FloatSqrt             0      0.00%     16.16% # Class of committed instruction
system.cpu.commit.op_class_0::SimdAdd              11      0.02%     16.17% # Class of committed instruction
system.cpu.commit.op_class_0::SimdAddAcc            0      0.00%     16.17% # Class of committed instruction
system.cpu.commit.op_class_0::SimdAlu            6408      9.01%     25.18% # Class of committed instruction
system.cpu.commit.op_class_0::SimdCmp            6409      9.01%     34.19% # Class of committed instruction
system.cpu.commit.op_class_0::SimdCvt               0      0.00%     34.19% # Class of committed instruction
system.cpu.commit.op_class_0::SimdMisc              8      0.01%     34.20% # Class of committed instruction
system.cpu.commit.op_class_0::SimdMult              0      0.00%     34.20% # Class of committed instruction
system.cpu.commit.op_class_0::SimdMultAcc            0      0.00%     34.20% # Class of committed instruction
system.cpu.commit.op_class_0::SimdShift             0      0.00%     34.20% # Class of committed instruction
system.cpu.commit.op_class_0::SimdShiftAcc            0      0.00%     34.20% # Class of committed instruction
system.cpu.commit.op_class_0::SimdDiv               0      0.00%     34.20% # Class of committed instruction
system.cpu.commit.op_class_0::SimdSqrt              0      0.00%     34.20% # Class of committed instruction
system.cpu.commit.op_class_0::SimdFloatAdd        12800     17.99%     52.19% # Class of committed instruction
system.cpu.commit.op_class_0::SimdFloatAlu            1      0.00%     52.19% # Class of committed instruction
system.cpu.commit.op_class_0::SimdFloatCmp            0      0.00%     52.19% # Class of committed instruction
system.cpu.commit.op_class_0::SimdFloatCvt            0      0.00%     52.19% # Class of committed instruction
system.cpu.commit.op_class_0::SimdFloatDiv         6400      9.00%     61.19% # Class of committed instruction
system.cpu.commit.op_class_0::SimdFloatMisc            0      0.00%     61.19% # Class of committed instruction
system.cpu.commit.op_class_0::SimdFloatMult            0      0.00%     61.19% # Class of committed instruction
system.cpu.commit.op_class_0::SimdFloatMultAcc            0      0.00%     61.19% # Class of committed instruction
system.cpu.commit.op_class_0::SimdFloatSqrt            0      0.00%     61.19% # Class of committed instruction
system.cpu.commit.op_class_0::SimdReduceAdd            0      0.00%     61.19% # Class of committed instruction
system.cpu.commit.op_class_0::SimdReduceAlu            0      0.00%     61.19% # Class of committed instruction
system.cpu.commit.op_class_0::SimdReduceCmp            0      0.00%     61.19% # Class of committed instruction
system.cpu.commit.op_class_0::SimdFloatReduceAdd            0      0.00%     61.19% # Class of committed instruction
system.cpu.commit.op_class_0::SimdFloatReduceCmp            0      0.00%     61.19% # Class of committed instruction
system.cpu.commit.op_class_0::SimdAes               0      0.00%     61.19% # Class of committed instruction
system.cpu.commit.op_class_0::SimdAesMix            0      0.00%     61.19% # Class of committed instruction
system.cpu.commit.op_class_0::SimdSha1Hash            0      0.00%     61.19% # Class of committed instruction
system.cpu.commit.op_class_0::SimdSha1Hash2            0      0.00%     61.19% # Class of committed instruction
system.cpu.commit.op_class_0::SimdSha256Hash            0      0.00%     61.19% # Class of committed instruction
system.cpu.commit.op_class_0::SimdSha256Hash2            0      0.00%     61.19% # Class of committed instruction
system.cpu.commit.op_class_0::SimdShaSigma2            0      0.00%     61.19% # Class of committed instruction
system.cpu.commit.op_class_0::SimdShaSigma3            0      0.00%     61.19% # Class of committed instruction
system.cpu.commit.op_class_0::SimdPredAlu          101      0.14%     61.33% # Class of committed instruction
system.cpu.commit.op_class_0::MemRead           20015     28.13%     89.47% # Class of committed instruction
system.cpu.commit.op_class_0::MemWrite           7493     10.53%    100.00% # Class of committed instruction
system.cpu.commit.op_class_0::FloatMemRead            0      0.00%    100.00% # Class of committed instruction
system.cpu.commit.op_class_0::FloatMemWrite            0      0.00%    100.00% # Class of committed instruction
system.cpu.commit.op_class_0::IprAccess             0      0.00%    100.00% # Class of committed instruction
system.cpu.commit.op_class_0::InstPrefetch            0      0.00%    100.00% # Class of committed instruction
system.cpu.commit.op_class_0::total             71140                       # Class of committed instruction
system.cpu.commit.refs                          27508                       # Number of memory references committed
system.cpu.commit.swp_count                         0                       # Number of s/w prefetches committed
system.cpu.commit.vec_insts                     44882                       # Number of committed Vector instructions.
system.cpu.committedInsts                       70048                       # Number of Instructions Simulated
system.cpu.committedOps                         71123                       # Number of Ops (including micro ops) Simulated
system.cpu.cpi                               1.461583                       # CPI: Cycles Per Instruction
system.cpu.cpi_total                         1.461583                       # CPI: Total CPI of All Threads
system.cpu.decode.BlockedCycles                 26396                       # Number of cycles decode is blocked
system.cpu.decode.BranchMispred                   159                       # Number of times decode detected a branch misprediction
system.cpu.decode.BranchResolved                 7088                       # Number of times decode resolved a branch
system.cpu.decode.DecodedInsts                  77213                       # Number of instructions handled by decode
system.cpu.decode.IdleCycles                    23211                       # Number of cycles decode is idle
system.cpu.decode.RunCycles                     22744                       # Number of cycles decode is running
system.cpu.decode.SquashCycles                    608                       # Number of cycles decode is squashing
system.cpu.decode.SquashedInsts                  1310                       # Number of squashed instructions handled by decode
system.cpu.decode.UnblockCycles                  8371                       # Number of cycles decode is unblocking
system.cpu.dtb.accesses                             0                       # DTB accesses
system.cpu.dtb.align_faults                         0                       # Number of TLB faults due to alignment restrictions
system.cpu.dtb.domain_faults                        0                       # Number of TLB faults due to domain restrictions
system.cpu.dtb.flush_entries                        0                       # Number of entries that have been flushed from TLB
system.cpu.dtb.flush_tlb                            0                       # Number of times complete TLB was flushed
system.cpu.dtb.flush_tlb_asid                       0                       # Number of times TLB was flushed by ASID
system.cpu.dtb.flush_tlb_mva                        0                       # Number of times TLB was flushed by MVA
system.cpu.dtb.flush_tlb_mva_asid                   0                       # Number of times TLB was flushed by MVA & ASID
system.cpu.dtb.hits                                 0                       # DTB hits
system.cpu.dtb.inst_accesses                        0                       # ITB inst accesses
system.cpu.dtb.inst_hits                            0                       # ITB inst hits
system.cpu.dtb.inst_misses                          0                       # ITB inst misses
system.cpu.dtb.misses                               0                       # DTB misses
system.cpu.dtb.perms_faults                         0                       # Number of TLB faults due to permissions restrictions
system.cpu.dtb.prefetch_faults                      0                       # Number of TLB faults due to prefetch
system.cpu.dtb.read_accesses                        0                       # DTB read accesses
system.cpu.dtb.read_hits                            0                       # DTB read hits
system.cpu.dtb.read_misses                          0                       # DTB read misses
system.cpu.dtb.stage2_mmu.stage2_tlb.accesses            0                       # DTB accesses
system.cpu.dtb.stage2_mmu.stage2_tlb.align_faults            0                       # Number of TLB faults due to alignment restrictions
system.cpu.dtb.stage2_mmu.stage2_tlb.domain_faults            0                       # Number of TLB faults due to domain restrictions
system.cpu.dtb.stage2_mmu.stage2_tlb.flush_entries            0                       # Number of entries that have been flushed from TLB
system.cpu.dtb.stage2_mmu.stage2_tlb.flush_tlb            0                       # Number of times complete TLB was flushed
system.cpu.dtb.stage2_mmu.stage2_tlb.flush_tlb_asid            0                       # Number of times TLB was flushed by ASID
system.cpu.dtb.stage2_mmu.stage2_tlb.flush_tlb_mva            0                       # Number of times TLB was flushed by MVA
system.cpu.dtb.stage2_mmu.stage2_tlb.flush_tlb_mva_asid            0                       # Number of times TLB was flushed by MVA & ASID
system.cpu.dtb.stage2_mmu.stage2_tlb.hits            0                       # DTB hits
system.cpu.dtb.stage2_mmu.stage2_tlb.inst_accesses            0                       # ITB inst accesses
system.cpu.dtb.stage2_mmu.stage2_tlb.inst_hits            0                       # ITB inst hits
system.cpu.dtb.stage2_mmu.stage2_tlb.inst_misses            0                       # ITB inst misses
system.cpu.dtb.stage2_mmu.stage2_tlb.misses            0                       # DTB misses
system.cpu.dtb.stage2_mmu.stage2_tlb.perms_faults            0                       # Number of TLB faults due to permissions restrictions
system.cpu.dtb.stage2_mmu.stage2_tlb.prefetch_faults            0                       # Number of TLB faults due to prefetch
system.cpu.dtb.stage2_mmu.stage2_tlb.read_accesses            0                       # DTB read accesses
system.cpu.dtb.stage2_mmu.stage2_tlb.read_hits            0                       # DTB read hits
system.cpu.dtb.stage2_mmu.stage2_tlb.read_misses            0                       # DTB read misses
system.cpu.dtb.stage2_mmu.stage2_tlb.walker.walkRequestOrigin_Requested::Data            0                       # Table walker requests started/completed, data/inst
system.cpu.dtb.stage2_mmu.stage2_tlb.walker.walkRequestOrigin_Requested::Inst            0                       # Table walker requests started/completed, data/inst
system.cpu.dtb.stage2_mmu.stage2_tlb.walker.walkRequestOrigin_Requested::total            0                       # Table walker requests started/completed, data/inst
system.cpu.dtb.stage2_mmu.stage2_tlb.walker.walkRequestOrigin_Completed::Data            0                       # Table walker requests started/completed, data/inst
system.cpu.dtb.stage2_mmu.stage2_tlb.walker.walkRequestOrigin_Completed::Inst            0                       # Table walker requests started/completed, data/inst
system.cpu.dtb.stage2_mmu.stage2_tlb.walker.walkRequestOrigin_Completed::total            0                       # Table walker requests started/completed, data/inst
system.cpu.dtb.stage2_mmu.stage2_tlb.walker.walkRequestOrigin::total            0                       # Table walker requests started/completed, data/inst
system.cpu.dtb.stage2_mmu.stage2_tlb.walker.walks            0                       # Table walker walks requested
system.cpu.dtb.stage2_mmu.stage2_tlb.write_accesses            0                       # DTB write accesses
system.cpu.dtb.stage2_mmu.stage2_tlb.write_hits            0                       # DTB write hits
system.cpu.dtb.stage2_mmu.stage2_tlb.write_misses            0                       # DTB write misses
system.cpu.dtb.walker.walkRequestOrigin_Requested::Data            0                       # Table walker requests started/completed, data/inst
system.cpu.dtb.walker.walkRequestOrigin_Requested::Inst            0                       # Table walker requests started/completed, data/inst
system.cpu.dtb.walker.walkRequestOrigin_Requested::total            0                       # Table walker requests started/completed, data/inst
system.cpu.dtb.walker.walkRequestOrigin_Completed::Data            0                       # Table walker requests started/completed, data/inst
system.cpu.dtb.walker.walkRequestOrigin_Completed::Inst            0                       # Table walker requests started/completed, data/inst
system.cpu.dtb.walker.walkRequestOrigin_Completed::total            0                       # Table walker requests started/completed, data/inst
system.cpu.dtb.walker.walkRequestOrigin::total            0                       # Table walker requests started/completed, data/inst
system.cpu.dtb.walker.walks                         0                       # Table walker walks requested
system.cpu.dtb.write_accesses                       0                       # DTB write accesses
system.cpu.dtb.write_hits                           0                       # DTB write hits
system.cpu.dtb.write_misses                         0                       # DTB write misses
system.cpu.fetch.Branches                        9419                       # Number of branches that fetch encountered
system.cpu.fetch.CacheLines                     24207                       # Number of cache lines fetched
system.cpu.fetch.Cycles                         47696                       # Number of cycles fetch has run and was not squashing or blocked
system.cpu.fetch.IcacheSquashes                   358                       # Number of outstanding Icache misses that were squashed
system.cpu.fetch.IcacheWaitRetryStallCycles           11                       # Number of stall cycles due to full MSHR
system.cpu.fetch.Insts                          79410                       # Number of instructions fetch has processed
system.cpu.fetch.MiscStallCycles                    1                       # Number of cycles fetch has spent waiting on interrupts, or bad addresses, or out of MSHRs
system.cpu.fetch.SquashCycles                    1524                       # Number of cycles fetch has spent squashing
system.cpu.fetch.branchRate                  0.091999                       # Number of branch fetches per cycle
system.cpu.fetch.icacheStallCycles              32860                       # Number of cycles fetch is stalled on an Icache miss
system.cpu.fetch.predictedBranches               7340                       # Number of branches that fetch has predicted taken
system.cpu.fetch.rate                        0.775632                       # Number of inst fetches per cycle
system.cpu.fetch.rateDist::samples              81330                       # Number of instructions fetched each cycle (Total)
system.cpu.fetch.rateDist::mean              0.999262                       # Number of instructions fetched each cycle (Total)
system.cpu.fetch.rateDist::stdev             1.196152                       # Number of instructions fetched each cycle (Total)
system.cpu.fetch.rateDist::underflows               0      0.00%      0.00% # Number of instructions fetched each cycle (Total)
system.cpu.fetch.rateDist::0                    41332     50.82%     50.82% # Number of instructions fetched each cycle (Total)
system.cpu.fetch.rateDist::1                    15606     19.19%     70.01% # Number of instructions fetched each cycle (Total)
system.cpu.fetch.rateDist::2                     7512      9.24%     79.25% # Number of instructions fetched each cycle (Total)
system.cpu.fetch.rateDist::3                    16880     20.75%    100.00% # Number of instructions fetched each cycle (Total)
system.cpu.fetch.rateDist::overflows                0      0.00%    100.00% # Number of instructions fetched each cycle (Total)
system.cpu.fetch.rateDist::min_value                0                       # Number of instructions fetched each cycle (Total)
system.cpu.fetch.rateDist::max_value                3                       # Number of instructions fetched each cycle (Total)
system.cpu.fetch.rateDist::total                81330                       # Number of instructions fetched each cycle (Total)
system.cpu.idleCycles                           21051                       # Total number of cycles that the CPU has spent unscheduled due to idling
system.cpu.iew.branchMispredicts                  618                       # Number of branch mispredicts detected at execute
system.cpu.iew.exec_branches                     8039                       # Number of branches executed
system.cpu.iew.exec_nop                            33                       # number of nop insts executed
system.cpu.iew.exec_rate                     0.737148                       # Inst execution rate
system.cpu.iew.exec_refs                        30556                       # number of memory reference insts executed
system.cpu.iew.exec_stores                       7594                       # Number of stores executed
system.cpu.iew.exec_swp                             0                       # number of swp insts executed
system.cpu.iew.iewBlockCycles                     205                       # Number of cycles IEW is blocking
system.cpu.iew.iewDispLoadInsts                 21023                       # Number of dispatched load instructions
system.cpu.iew.iewDispNonSpecInsts                 29                       # Number of dispatched non-speculative instructions
system.cpu.iew.iewDispSquashedInsts                 0                       # Number of squashed instructions skipped by dispatch
system.cpu.iew.iewDispStoreInsts                 7854                       # Number of dispatched store instructions
system.cpu.iew.iewDispatchedInsts               74985                       # Number of instructions dispatched to IQ
system.cpu.iew.iewExecLoadInsts                 22962                       # Number of load instructions executed
system.cpu.iew.iewExecSquashedInsts               750                       # Number of squashed instructions skipped in execute
system.cpu.iew.iewExecutedInsts                 75470                       # Number of executed instructions
system.cpu.iew.iewIQFullEvents                      0                       # Number of times the IQ has become full, causing a stall
system.cpu.iew.iewIdleCycles                        0                       # Number of cycles IEW is idle
system.cpu.iew.iewLSQFullEvents                  2702                       # Number of times the LSQ has become full, causing a stall
system.cpu.iew.iewSquashCycles                    608                       # Number of cycles IEW is squashing
system.cpu.iew.iewUnblockCycles                  2801                       # Number of cycles IEW is unblocking
system.cpu.iew.lsq.thread0.blockedLoads             0                       # Number of blocked loads due to partial load-store forwarding
system.cpu.iew.lsq.thread0.cacheBlocked           254                       # Number of times an access to memory failed due to the cache being blocked
system.cpu.iew.lsq.thread0.forwLoads               10                       # Number of loads that had data forwarded from stores
system.cpu.iew.lsq.thread0.ignoredResponses            0                       # Number of memory responses ignored because the instruction is squashed
system.cpu.iew.lsq.thread0.invAddrLoads             0                       # Number of loads ignored due to an invalid address
system.cpu.iew.lsq.thread0.invAddrSwpfs             0                       # Number of software prefetches ignored due to an invalid address
system.cpu.iew.lsq.thread0.memOrderViolation            3                       # Number of memory ordering violations
system.cpu.iew.lsq.thread0.rescheduledLoads            1                       # Number of loads that were rescheduled
system.cpu.iew.lsq.thread0.squashedLoads         1008                       # Number of loads squashed
system.cpu.iew.lsq.thread0.squashedStores          361                       # Number of stores squashed
system.cpu.iew.memOrderViolationEvents              3                       # Number of memory order violations
system.cpu.iew.predictedNotTakenIncorrect          514                       # Number of branches that were predicted not taken incorrectly
system.cpu.iew.predictedTakenIncorrect            104                       # Number of branches that were predicted taken incorrectly
system.cpu.iew.wb_consumers                    108096                       # num instructions consuming a value
system.cpu.iew.wb_count                         72692                       # cumulative count of insts written-back
system.cpu.iew.wb_fanout                     0.506217                       # average fanout of values written-back
system.cpu.iew.wb_producers                     54720                       # num instructions producing a value
system.cpu.iew.wb_rate                       0.710015                       # insts written-back per cycle
system.cpu.iew.wb_sent                          72767                       # cumulative count of insts sent to commit
system.cpu.int_regfile_reads                    84948                       # number of integer regfile reads
system.cpu.int_regfile_writes                   12387                       # number of integer regfile writes
system.cpu.ipc                               0.684189                       # IPC: Instructions Per Cycle
system.cpu.ipc_total                         0.684189                       # IPC: Total IPC of All Threads
system.cpu.iq.FU_type_0::No_OpClass                 2      0.00%      0.00% # Type of FU issued
system.cpu.iq.FU_type_0::IntAlu                 12932     16.97%     16.97% # Type of FU issued
system.cpu.iq.FU_type_0::IntMult                    3      0.00%     16.97% # Type of FU issued
system.cpu.iq.FU_type_0::IntDiv                     2      0.00%     16.98% # Type of FU issued
system.cpu.iq.FU_type_0::FloatAdd                   0      0.00%     16.98% # Type of FU issued
system.cpu.iq.FU_type_0::FloatCmp                   0      0.00%     16.98% # Type of FU issued
system.cpu.iq.FU_type_0::FloatCvt                   0      0.00%     16.98% # Type of FU issued
system.cpu.iq.FU_type_0::FloatMult                  0      0.00%     16.98% # Type of FU issued
system.cpu.iq.FU_type_0::FloatMultAcc               0      0.00%     16.98% # Type of FU issued
system.cpu.iq.FU_type_0::FloatDiv                   0      0.00%     16.98% # Type of FU issued
system.cpu.iq.FU_type_0::FloatMisc                  0      0.00%     16.98% # Type of FU issued
system.cpu.iq.FU_type_0::FloatSqrt                  0      0.00%     16.98% # Type of FU issued
system.cpu.iq.FU_type_0::SimdAdd                   11      0.01%     16.99% # Type of FU issued
system.cpu.iq.FU_type_0::SimdAddAcc                 0      0.00%     16.99% # Type of FU issued
system.cpu.iq.FU_type_0::SimdAlu                 6508      8.54%     25.53% # Type of FU issued
system.cpu.iq.FU_type_0::SimdCmp                 6508      8.54%     34.07% # Type of FU issued
system.cpu.iq.FU_type_0::SimdCvt                    0      0.00%     34.07% # Type of FU issued
system.cpu.iq.FU_type_0::SimdMisc                   8      0.01%     34.08% # Type of FU issued
system.cpu.iq.FU_type_0::SimdMult                   0      0.00%     34.08% # Type of FU issued
system.cpu.iq.FU_type_0::SimdMultAcc                0      0.00%     34.08% # Type of FU issued
system.cpu.iq.FU_type_0::SimdShift                  0      0.00%     34.08% # Type of FU issued
system.cpu.iq.FU_type_0::SimdShiftAcc               0      0.00%     34.08% # Type of FU issued
system.cpu.iq.FU_type_0::SimdDiv                    0      0.00%     34.08% # Type of FU issued
system.cpu.iq.FU_type_0::SimdSqrt                   0      0.00%     34.08% # Type of FU issued
system.cpu.iq.FU_type_0::SimdFloatAdd           12800     16.79%     50.87% # Type of FU issued
system.cpu.iq.FU_type_0::SimdFloatAlu               1      0.00%     50.87% # Type of FU issued
system.cpu.iq.FU_type_0::SimdFloatCmp               0      0.00%     50.87% # Type of FU issued
system.cpu.iq.FU_type_0::SimdFloatCvt               0      0.00%     50.87% # Type of FU issued
system.cpu.iq.FU_type_0::SimdFloatDiv            6400      8.40%     59.27% # Type of FU issued
system.cpu.iq.FU_type_0::SimdFloatMisc              0      0.00%     59.27% # Type of FU issued
system.cpu.iq.FU_type_0::SimdFloatMult              0      0.00%     59.27% # Type of FU issued
system.cpu.iq.FU_type_0::SimdFloatMultAcc            0      0.00%     59.27% # Type of FU issued
system.cpu.iq.FU_type_0::SimdFloatSqrt              0      0.00%     59.27% # Type of FU issued
system.cpu.iq.FU_type_0::SimdReduceAdd              0      0.00%     59.27% # Type of FU issued
system.cpu.iq.FU_type_0::SimdReduceAlu              0      0.00%     59.27% # Type of FU issued
system.cpu.iq.FU_type_0::SimdReduceCmp              0      0.00%     59.27% # Type of FU issued
system.cpu.iq.FU_type_0::SimdFloatReduceAdd            0      0.00%     59.27% # Type of FU issued
system.cpu.iq.FU_type_0::SimdFloatReduceCmp            0      0.00%     59.27% # Type of FU issued
system.cpu.iq.FU_type_0::SimdAes                    0      0.00%     59.27% # Type of FU issued
system.cpu.iq.FU_type_0::SimdAesMix                 0      0.00%     59.27% # Type of FU issued
system.cpu.iq.FU_type_0::SimdSha1Hash               0      0.00%     59.27% # Type of FU issued
system.cpu.iq.FU_type_0::SimdSha1Hash2              0      0.00%     59.27% # Type of FU issued
system.cpu.iq.FU_type_0::SimdSha256Hash             0      0.00%     59.27% # Type of FU issued
system.cpu.iq.FU_type_0::SimdSha256Hash2            0      0.00%     59.27% # Type of FU issued
system.cpu.iq.FU_type_0::SimdShaSigma2              0      0.00%     59.27% # Type of FU issued
system.cpu.iq.FU_type_0::SimdShaSigma3              0      0.00%     59.27% # Type of FU issued
system.cpu.iq.FU_type_0::SimdPredAlu              102      0.13%     59.40% # Type of FU issued
system.cpu.iq.FU_type_0::MemRead                23301     30.57%     89.97% # Type of FU issued
system.cpu.iq.FU_type_0::MemWrite                7642     10.03%    100.00% # Type of FU issued
system.cpu.iq.FU_type_0::FloatMemRead               0      0.00%    100.00% # Type of FU issued
system.cpu.iq.FU_type_0::FloatMemWrite              0      0.00%    100.00% # Type of FU issued
system.cpu.iq.FU_type_0::IprAccess                  0      0.00%    100.00% # Type of FU issued
system.cpu.iq.FU_type_0::InstPrefetch               0      0.00%    100.00% # Type of FU issued
system.cpu.iq.FU_type_0::total                  76220                       # Type of FU issued
system.cpu.iq.fp_alu_accesses                       0                       # Number of floating point alu accesses
system.cpu.iq.fp_inst_queue_reads                   0                       # Number of floating instruction queue reads
system.cpu.iq.fp_inst_queue_wakeup_accesses            0                       # Number of floating instruction queue wakeup accesses
system.cpu.iq.fp_inst_queue_writes                  0                       # Number of floating instruction queue writes
system.cpu.iq.fu_busy_cnt                       17452                       # FU busy when requested
system.cpu.iq.fu_busy_rate                   0.228969                       # FU busy rate (busy events/executed inst)
system.cpu.iq.fu_full::No_OpClass                   0      0.00%      0.00% # attempts to use FU when none available
system.cpu.iq.fu_full::IntAlu                     451      2.58%      2.58% # attempts to use FU when none available
system.cpu.iq.fu_full::IntMult                      0      0.00%      2.58% # attempts to use FU when none available
system.cpu.iq.fu_full::IntDiv                       0      0.00%      2.58% # attempts to use FU when none available
system.cpu.iq.fu_full::FloatAdd                     0      0.00%      2.58% # attempts to use FU when none available
system.cpu.iq.fu_full::FloatCmp                     0      0.00%      2.58% # attempts to use FU when none available
system.cpu.iq.fu_full::FloatCvt                     0      0.00%      2.58% # attempts to use FU when none available
system.cpu.iq.fu_full::FloatMult                    0      0.00%      2.58% # attempts to use FU when none available
system.cpu.iq.fu_full::FloatMultAcc                 0      0.00%      2.58% # attempts to use FU when none available
system.cpu.iq.fu_full::FloatDiv                     0      0.00%      2.58% # attempts to use FU when none available
system.cpu.iq.fu_full::FloatMisc                    0      0.00%      2.58% # attempts to use FU when none available
system.cpu.iq.fu_full::FloatSqrt                    0      0.00%      2.58% # attempts to use FU when none available
system.cpu.iq.fu_full::SimdAdd                      0      0.00%      2.58% # attempts to use FU when none available
system.cpu.iq.fu_full::SimdAddAcc                   0      0.00%      2.58% # attempts to use FU when none available
system.cpu.iq.fu_full::SimdAlu                    596      3.42%      6.00% # attempts to use FU when none available
system.cpu.iq.fu_full::SimdCmp                    497      2.85%      8.85% # attempts to use FU when none available
system.cpu.iq.fu_full::SimdCvt                      0      0.00%      8.85% # attempts to use FU when none available
system.cpu.iq.fu_full::SimdMisc                     0      0.00%      8.85% # attempts to use FU when none available
system.cpu.iq.fu_full::SimdMult                     0      0.00%      8.85% # attempts to use FU when none available
system.cpu.iq.fu_full::SimdMultAcc                  0      0.00%      8.85% # attempts to use FU when none available
system.cpu.iq.fu_full::SimdShift                    0      0.00%      8.85% # attempts to use FU when none available
system.cpu.iq.fu_full::SimdShiftAcc                 0      0.00%      8.85% # attempts to use FU when none available
system.cpu.iq.fu_full::SimdDiv                      0      0.00%      8.85% # attempts to use FU when none available
system.cpu.iq.fu_full::SimdSqrt                     0      0.00%      8.85% # attempts to use FU when none available
system.cpu.iq.fu_full::SimdFloatAdd                99      0.57%      9.41% # attempts to use FU when none available
system.cpu.iq.fu_full::SimdFloatAlu                 0      0.00%      9.41% # attempts to use FU when none available
system.cpu.iq.fu_full::SimdFloatCmp                 0      0.00%      9.41% # attempts to use FU when none available
system.cpu.iq.fu_full::SimdFloatCvt                 0      0.00%      9.41% # attempts to use FU when none available
system.cpu.iq.fu_full::SimdFloatDiv                 0      0.00%      9.41% # attempts to use FU when none available
system.cpu.iq.fu_full::SimdFloatMisc                0      0.00%      9.41% # attempts to use FU when none available
system.cpu.iq.fu_full::SimdFloatMult                0      0.00%      9.41% # attempts to use FU when none available
system.cpu.iq.fu_full::SimdFloatMultAcc             0      0.00%      9.41% # attempts to use FU when none available
system.cpu.iq.fu_full::SimdFloatSqrt                0      0.00%      9.41% # attempts to use FU when none available
system.cpu.iq.fu_full::SimdReduceAdd                0      0.00%      9.41% # attempts to use FU when none available
system.cpu.iq.fu_full::SimdReduceAlu                0      0.00%      9.41% # attempts to use FU when none available
system.cpu.iq.fu_full::SimdReduceCmp                0      0.00%      9.41% # attempts to use FU when none available
system.cpu.iq.fu_full::SimdFloatReduceAdd            0      0.00%      9.41% # attempts to use FU when none available
system.cpu.iq.fu_full::SimdFloatReduceCmp            0      0.00%      9.41% # attempts to use FU when none available
system.cpu.iq.fu_full::SimdAes                      0      0.00%      9.41% # attempts to use FU when none available
system.cpu.iq.fu_full::SimdAesMix                   0      0.00%      9.41% # attempts to use FU when none available
system.cpu.iq.fu_full::SimdSha1Hash                 0      0.00%      9.41% # attempts to use FU when none available
system.cpu.iq.fu_full::SimdSha1Hash2                0      0.00%      9.41% # attempts to use FU when none available
system.cpu.iq.fu_full::SimdSha256Hash               0      0.00%      9.41% # attempts to use FU when none available
system.cpu.iq.fu_full::SimdSha256Hash2              0      0.00%      9.41% # attempts to use FU when none available
system.cpu.iq.fu_full::SimdShaSigma2                0      0.00%      9.41% # attempts to use FU when none available
system.cpu.iq.fu_full::SimdShaSigma3                0      0.00%      9.41% # attempts to use FU when none available
system.cpu.iq.fu_full::SimdPredAlu                  0      0.00%      9.41% # attempts to use FU when none available
system.cpu.iq.fu_full::MemRead                  15298     87.66%     97.07% # attempts to use FU when none available
system.cpu.iq.fu_full::MemWrite                   511      2.93%    100.00% # attempts to use FU when none available
system.cpu.iq.fu_full::FloatMemRead                 0      0.00%    100.00% # attempts to use FU when none available
system.cpu.iq.fu_full::FloatMemWrite                0      0.00%    100.00% # attempts to use FU when none available
system.cpu.iq.fu_full::IprAccess                    0      0.00%    100.00% # attempts to use FU when none available
system.cpu.iq.fu_full::InstPrefetch                 0      0.00%    100.00% # attempts to use FU when none available
system.cpu.iq.int_alu_accesses                  30776                       # Number of integer alu accesses
system.cpu.iq.int_inst_queue_reads             140694                       # Number of integer instruction queue reads
system.cpu.iq.int_inst_queue_wakeup_accesses        27710                       # Number of integer instruction queue wakeup accesses
system.cpu.iq.int_inst_queue_writes             32079                       # Number of integer instruction queue writes
system.cpu.iq.iqInstsAdded                      74923                       # Number of instructions added to the IQ (excludes non-spec)
system.cpu.iq.iqInstsIssued                     76220                       # Number of instructions issued
system.cpu.iq.iqNonSpecInstsAdded                  29                       # Number of non-speculative instructions added to the IQ
system.cpu.iq.iqSquashedInstsExamined            3828                       # Number of squashed instructions iterated over during squash; mainly for profiling
system.cpu.iq.iqSquashedInstsIssued                86                       # Number of squashed instructions issued
system.cpu.iq.iqSquashedNonSpecRemoved              7                       # Number of squashed non-spec instructions that were removed
system.cpu.iq.iqSquashedOperandsExamined         5930                       # Number of squashed operands that are examined and possibly removed from graph
system.cpu.iq.issued_per_cycle::samples         81330                       # Number of insts issued each cycle
system.cpu.iq.issued_per_cycle::mean         0.937170                       # Number of insts issued each cycle
system.cpu.iq.issued_per_cycle::stdev        0.986020                       # Number of insts issued each cycle
system.cpu.iq.issued_per_cycle::underflows            0      0.00%      0.00% # Number of insts issued each cycle
system.cpu.iq.issued_per_cycle::0               34351     42.24%     42.24% # Number of insts issued each cycle
system.cpu.iq.issued_per_cycle::1               24826     30.53%     72.76% # Number of insts issued each cycle
system.cpu.iq.issued_per_cycle::2               15877     19.52%     92.28% # Number of insts issued each cycle
system.cpu.iq.issued_per_cycle::3                5464      6.72%     99.00% # Number of insts issued each cycle
system.cpu.iq.issued_per_cycle::4                 812      1.00%    100.00% # Number of insts issued each cycle
system.cpu.iq.issued_per_cycle::5                   0      0.00%    100.00% # Number of insts issued each cycle
system.cpu.iq.issued_per_cycle::6                   0      0.00%    100.00% # Number of insts issued each cycle
system.cpu.iq.issued_per_cycle::7                   0      0.00%    100.00% # Number of insts issued each cycle
system.cpu.iq.issued_per_cycle::8                   0      0.00%    100.00% # Number of insts issued each cycle
system.cpu.iq.issued_per_cycle::overflows            0      0.00%    100.00% # Number of insts issued each cycle
system.cpu.iq.issued_per_cycle::min_value            0                       # Number of insts issued each cycle
system.cpu.iq.issued_per_cycle::max_value            4                       # Number of insts issued each cycle
system.cpu.iq.issued_per_cycle::total           81330                       # Number of insts issued each cycle
system.cpu.iq.rate                           0.744474                       # Inst issue rate
system.cpu.iq.vec_alu_accesses                  62894                       # Number of vector alu accesses
system.cpu.iq.vec_inst_queue_reads             110614                       # Number of vector instruction queue reads
system.cpu.iq.vec_inst_queue_wakeup_accesses        44982                       # Number of vector instruction queue wakeup accesses
system.cpu.iq.vec_inst_queue_writes             46704                       # Number of vector instruction queue writes
system.cpu.itb.accesses                             0                       # DTB accesses
system.cpu.itb.align_faults                         0                       # Number of TLB faults due to alignment restrictions
system.cpu.itb.domain_faults                        0                       # Number of TLB faults due to domain restrictions
system.cpu.itb.flush_entries                        0                       # Number of entries that have been flushed from TLB
system.cpu.itb.flush_tlb                            0                       # Number of times complete TLB was flushed
system.cpu.itb.flush_tlb_asid                       0                       # Number of times TLB was flushed by ASID
system.cpu.itb.flush_tlb_mva                        0                       # Number of times TLB was flushed by MVA
system.cpu.itb.flush_tlb_mva_asid                   0                       # Number of times TLB was flushed by MVA & ASID
system.cpu.itb.hits                                 0                       # DTB hits
system.cpu.itb.inst_accesses                        0                       # ITB inst accesses
system.cpu.itb.inst_hits                            0                       # ITB inst hits
system.cpu.itb.inst_misses                          0                       # ITB inst misses
system.cpu.itb.misses                               0                       # DTB misses
system.cpu.itb.perms_faults                         0                       # Number of TLB faults due to permissions restrictions
system.cpu.itb.prefetch_faults                      0                       # Number of TLB faults due to prefetch
system.cpu.itb.read_accesses                        0                       # DTB read accesses
system.cpu.itb.read_hits                            0                       # DTB read hits
system.cpu.itb.read_misses                          0                       # DTB read misses
system.cpu.itb.stage2_mmu.stage2_tlb.accesses            0                       # DTB accesses
system.cpu.itb.stage2_mmu.stage2_tlb.align_faults            0                       # Number of TLB faults due to alignment restrictions
system.cpu.itb.stage2_mmu.stage2_tlb.domain_faults            0                       # Number of TLB faults due to domain restrictions
system.cpu.itb.stage2_mmu.stage2_tlb.flush_entries            0                       # Number of entries that have been flushed from TLB
system.cpu.itb.stage2_mmu.stage2_tlb.flush_tlb            0                       # Number of times complete TLB was flushed
system.cpu.itb.stage2_mmu.stage2_tlb.flush_tlb_asid            0                       # Number of times TLB was flushed by ASID
system.cpu.itb.stage2_mmu.stage2_tlb.flush_tlb_mva            0                       # Number of times TLB was flushed by MVA
system.cpu.itb.stage2_mmu.stage2_tlb.flush_tlb_mva_asid            0                       # Number of times TLB was flushed by MVA & ASID
system.cpu.itb.stage2_mmu.stage2_tlb.hits            0                       # DTB hits
system.cpu.itb.stage2_mmu.stage2_tlb.inst_accesses            0                       # ITB inst accesses
system.cpu.itb.stage2_mmu.stage2_tlb.inst_hits            0                       # ITB inst hits
system.cpu.itb.stage2_mmu.stage2_tlb.inst_misses            0                       # ITB inst misses
system.cpu.itb.stage2_mmu.stage2_tlb.misses            0                       # DTB misses
system.cpu.itb.stage2_mmu.stage2_tlb.perms_faults            0                       # Number of TLB faults due to permissions restrictions
system.cpu.itb.stage2_mmu.stage2_tlb.prefetch_faults            0                       # Number of TLB faults due to prefetch
system.cpu.itb.stage2_mmu.stage2_tlb.read_accesses            0                       # DTB read accesses
system.cpu.itb.stage2_mmu.stage2_tlb.read_hits            0                       # DTB read hits
system.cpu.itb.stage2_mmu.stage2_tlb.read_misses            0                       # DTB read misses
system.cpu.itb.stage2_mmu.stage2_tlb.walker.walkRequestOrigin_Requested::Data            0                       # Table walker requests started/completed, data/inst
system.cpu.itb.stage2_mmu.stage2_tlb.walker.walkRequestOrigin_Requested::Inst            0                       # Table walker requests started/completed, data/inst
system.cpu.itb.stage2_mmu.stage2_tlb.walker.walkRequestOrigin_Requested::total            0                       # Table walker requests started/completed, data/inst
system.cpu.itb.stage2_mmu.stage2_tlb.walker.walkRequestOrigin_Completed::Data            0                       # Table walker requests started/completed, data/inst
system.cpu.itb.stage2_mmu.stage2_tlb.walker.walkRequestOrigin_Completed::Inst            0                       # Table walker requests started/completed, data/inst
system.cpu.itb.stage2_mmu.stage2_tlb.walker.walkRequestOrigin_Completed::total            0                       # Table walker requests started/completed, data/inst
system.cpu.itb.stage2_mmu.stage2_tlb.walker.walkRequestOrigin::total            0                       # Table walker requests started/completed, data/inst
system.cpu.itb.stage2_mmu.stage2_tlb.walker.walks            0                       # Table walker walks requested
system.cpu.itb.stage2_mmu.stage2_tlb.write_accesses            0                       # DTB write accesses
system.cpu.itb.stage2_mmu.stage2_tlb.write_hits            0                       # DTB write hits
system.cpu.itb.stage2_mmu.stage2_tlb.write_misses            0                       # DTB write misses
system.cpu.itb.walker.walkRequestOrigin_Requested::Data            0                       # Table walker requests started/completed, data/inst
system.cpu.itb.walker.walkRequestOrigin_Requested::Inst            0                       # Table walker requests started/completed, data/inst
system.cpu.itb.walker.walkRequestOrigin_Requested::total            0                       # Table walker requests started/completed, data/inst
system.cpu.itb.walker.walkRequestOrigin_Completed::Data            0                       # Table walker requests started/completed, data/inst
system.cpu.itb.walker.walkRequestOrigin_Completed::Inst            0                       # Table walker requests started/completed, data/inst
system.cpu.itb.walker.walkRequestOrigin_Completed::total            0                       # Table walker requests started/completed, data/inst
system.cpu.itb.walker.walkRequestOrigin::total            0                       # Table walker requests started/completed, data/inst
system.cpu.itb.walker.walks                         0                       # Table walker walks requested
system.cpu.itb.write_accesses                       0                       # DTB write accesses
system.cpu.itb.write_hits                           0                       # DTB write hits
system.cpu.itb.write_misses                         0                       # DTB write misses
system.cpu.memDep0.conflictingLoads                 0                       # Number of conflicting loads.
system.cpu.memDep0.conflictingStores                0                       # Number of conflicting stores.
system.cpu.memDep0.insertedLoads                21023                       # Number of loads inserted to the mem dependence unit.
system.cpu.memDep0.insertedStores                7854                       # Number of stores inserted to the mem dependence unit.
system.cpu.misc_regfile_reads                  322002                       # number of misc regfile reads
system.cpu.misc_regfile_writes                  19257                       # number of misc regfile writes
system.cpu.numCycles                           102381                       # number of cpu cycles simulated
system.cpu.numWorkItemsCompleted                    0                       # number of work items this cpu completed
system.cpu.numWorkItemsStarted                      0                       # number of work items this cpu started
system.cpu.pred_regfile_reads                   54240                       # number of predicate regfile reads
system.cpu.pred_regfile_writes                   6503                       # number of predicate regfile writes
system.cpu.rename.BlockCycles                    5038                       # Number of cycles rename is blocking
system.cpu.rename.CommittedMaps                 96731                       # Number of HB maps that are committed
system.cpu.rename.IdleCycles                    28787                       # Number of cycles rename is idle
system.cpu.rename.LQFullEvents                  15097                       # Number of times rename has blocked due to LQ full
system.cpu.rename.ROBFullEvents                  2966                       # Number of times rename has blocked due to ROB full
system.cpu.rename.RenameLookups                323376                       # Number of register rename lookups that rename has made
system.cpu.rename.RenamedInsts                  75829                       # Number of instructions processed by rename
system.cpu.rename.RenamedOperands              102062                       # Number of destination operands rename has renamed
system.cpu.rename.RunCycles                     25514                       # Number of cycles rename is running
system.cpu.rename.SQFullEvents                   1460                       # Number of times rename has blocked due to SQ full
system.cpu.rename.SquashCycles                    608                       # Number of cycles rename is squashing
system.cpu.rename.SquashedInsts                   421                       # Number of squashed instructions processed by rename
system.cpu.rename.UnblockCycles                 19681                       # Number of cycles rename is unblocking
system.cpu.rename.UndoneMaps                     5331                       # Number of HB maps that are undone due to squashing
system.cpu.rename.int_rename_lookups            82858                       # Number of integer rename lookups
system.cpu.rename.serializeStallCycles           1702                       # count of cycles rename stalled for serializing inst
system.cpu.rename.serializingInsts                 59                       # count of serializing insts renamed
system.cpu.rename.skidInsts                     16545                       # count of insts added to the skid buffer
system.cpu.rename.tempSerializingInsts             29                       # count of temporary serializing insts renamed
system.cpu.rename.vec_pred_rename_lookups        33199                       # Number of vector predicate rename lookups
system.cpu.rename.vec_rename_lookups            46212                       # Number of vector rename lookups
system.cpu.rob.rob_reads                       148839                       # The number of ROB reads
system.cpu.rob.rob_writes                      150496                       # The number of ROB writes
system.cpu.timesIdled                             269                       # Number of times that the entire CPU went into an idle state and unscheduled itself
system.cpu.vec_regfile_reads                    44901                       # number of vector regfile reads
system.cpu.vec_regfile_writes                   38539                       # number of vector regfile writes
system.cpu.workload.numSyscalls                     7                       # Number of system calls
system.membus.snoop_filter.hit_multi_requests            0                       # Number of requests hitting in the snoop filter with multiple (>1) holders of the requested data.
system.membus.snoop_filter.hit_multi_snoops            0                       # Number of snoops hitting in the snoop filter with multiple (>1) holders of the requested data.
system.membus.snoop_filter.hit_single_requests           47                       # Number of requests hitting in the snoop filter with a single holder of the requested data.
system.membus.snoop_filter.hit_single_snoops            0                       # Number of snoops hitting in the snoop filter with a single holder of the requested data.
system.membus.snoop_filter.tot_requests           813                       # Total number of requests made to the snoop filter.
system.membus.snoop_filter.tot_snoops               0                       # Total number of snoops made to the snoop filter.
system.membus.pwrStateResidencyTicks::UNDEFINED     51190000                       # Cumulative time (in ticks) in various power states
system.membus.trans_dist::ReadResp                674                       # Transaction distribution
system.membus.trans_dist::WritebackDirty            1                       # Transaction distribution
system.membus.trans_dist::WritebackClean           41                       # Transaction distribution
system.membus.trans_dist::CleanEvict                3                       # Transaction distribution
system.membus.trans_dist::ReadExReq                85                       # Transaction distribution
system.membus.trans_dist::ReadExResp               85                       # Transaction distribution
system.membus.trans_dist::ReadCleanReq            329                       # Transaction distribution
system.membus.trans_dist::ReadSharedReq           346                       # Transaction distribution
system.membus.trans_dist::InvalidateReq             8                       # Transaction distribution
system.membus.pkt_count_system.cpu.icache.mem_side::system.mem_ctrls.port          698                       # Packet count per connected master and slave (bytes)
system.membus.pkt_count_system.cpu.dcache.mem_side::system.mem_ctrls.port          874                       # Packet count per connected master and slave (bytes)
system.membus.pkt_count::total                   1572                       # Packet count per connected master and slave (bytes)
system.membus.pkt_size_system.cpu.icache.mem_side::system.mem_ctrls.port        23616                       # Cumulative packet size per connected master and slave (bytes)
system.membus.pkt_size_system.cpu.dcache.mem_side::system.mem_ctrls.port        27648                       # Cumulative packet size per connected master and slave (bytes)
system.membus.pkt_size::total                   51264                       # Cumulative packet size per connected master and slave (bytes)
system.membus.snoops                                0                       # Total snoops (count)
system.membus.snoopTraffic                          0                       # Total snoop traffic (bytes)
system.membus.snoop_fanout::samples               768                       # Request fanout histogram
system.membus.snoop_fanout::mean             0.002604                       # Request fanout histogram
system.membus.snoop_fanout::stdev            0.050998                       # Request fanout histogram
system.membus.snoop_fanout::underflows              0      0.00%      0.00% # Request fanout histogram
system.membus.snoop_fanout::0                     766     99.74%     99.74% # Request fanout histogram
system.membus.snoop_fanout::1                       2      0.26%    100.00% # Request fanout histogram
system.membus.snoop_fanout::2                       0      0.00%    100.00% # Request fanout histogram
system.membus.snoop_fanout::overflows               0      0.00%    100.00% # Request fanout histogram
system.membus.snoop_fanout::min_value               0                       # Request fanout histogram
system.membus.snoop_fanout::max_value               1                       # Request fanout histogram
system.membus.snoop_fanout::total                 768                       # Request fanout histogram
system.membus.reqLayer0.occupancy             1219500                       # Layer occupancy (ticks)
system.membus.reqLayer0.utilization               2.4                       # Layer utilization (%)
system.membus.respLayer1.occupancy            1748000                       # Layer occupancy (ticks)
system.membus.respLayer1.utilization              3.4                       # Layer utilization (%)
system.membus.respLayer2.occupancy            2243500                       # Layer occupancy (ticks)
system.membus.respLayer2.utilization              4.4                       # Layer utilization (%)
system.voltage_domain.voltage                       1                       # Voltage in Volts
system.clk_domain.clock                          1000                       # Clock period in ticks
system.cpu_voltage_domain.voltage                   1                       # Voltage in Volts
system.mem_ctrls.pwrStateResidencyTicks::UNDEFINED     51190000                       # Cumulative time (in ticks) in various power states
system.mem_ctrls.bytes_read::.cpu.inst          20992                       # Number of bytes read from this memory
system.mem_ctrls.bytes_read::.cpu.data          27584                       # Number of bytes read from this memory
system.mem_ctrls.bytes_read::total              48576                       # Number of bytes read from this memory
system.mem_ctrls.bytes_inst_read::.cpu.inst        20992                       # Number of instructions bytes read from this memory
system.mem_ctrls.bytes_inst_read::total         20992                       # Number of instructions bytes read from this memory
system.mem_ctrls.bytes_written::.writebacks           64                       # Number of bytes written to this memory
system.mem_ctrls.bytes_written::total              64                       # Number of bytes written to this memory
system.mem_ctrls.num_reads::.cpu.inst             328                       # Number of read requests responded to by this memory
system.mem_ctrls.num_reads::.cpu.data             431                       # Number of read requests responded to by this memory
system.mem_ctrls.num_reads::total                 759                       # Number of read requests responded to by this memory
system.mem_ctrls.num_writes::.writebacks            1                       # Number of write requests responded to by this memory
system.mem_ctrls.num_writes::total                  1                       # Number of write requests responded to by this memory
system.mem_ctrls.bw_read::.cpu.inst         410080094                       # Total read bandwidth from this memory (bytes/s)
system.mem_ctrls.bw_read::.cpu.data         538855245                       # Total read bandwidth from this memory (bytes/s)
system.mem_ctrls.bw_read::total             948935339                       # Total read bandwidth from this memory (bytes/s)
system.mem_ctrls.bw_inst_read::.cpu.inst    410080094                       # Instruction read bandwidth from this memory (bytes/s)
system.mem_ctrls.bw_inst_read::total        410080094                       # Instruction read bandwidth from this memory (bytes/s)
system.mem_ctrls.bw_write::.writebacks        1250244                       # Write bandwidth from this memory (bytes/s)
system.mem_ctrls.bw_write::total              1250244                       # Write bandwidth from this memory (bytes/s)
system.mem_ctrls.bw_total::.writebacks        1250244                       # Total bandwidth to/from this memory (bytes/s)
system.mem_ctrls.bw_total::.cpu.inst        410080094                       # Total bandwidth to/from this memory (bytes/s)
system.mem_ctrls.bw_total::.cpu.data        538855245                       # Total bandwidth to/from this memory (bytes/s)
system.mem_ctrls.bw_total::total            950185583                       # Total bandwidth to/from this memory (bytes/s)
system.mem_ctrls.avgPriority_.writebacks::samples        42.00                       # Average QoS priority value for accepted requests
system.mem_ctrls.avgPriority_.cpu.inst::samples       327.00                       # Average QoS priority value for accepted requests
system.mem_ctrls.avgPriority_.cpu.data::samples       431.00                       # Average QoS priority value for accepted requests
system.mem_ctrls.priorityMinLatency      0.000000018750                       # per QoS priority minimum request to response latency (s)
system.mem_ctrls.priorityMaxLatency      0.000087985250                       # per QoS priority maximum request to response latency (s)
system.mem_ctrls.numReadWriteTurnArounds            1                       # Number of turnarounds from READ to WRITE
system.mem_ctrls.numWriteReadTurnArounds            1                       # Number of turnarounds from WRITE to READ
system.mem_ctrls.numStayReadState                1542                       # Number of times bus staying in READ state
system.mem_ctrls.numStayWriteState                 16                       # Number of times bus staying in WRITE state
system.mem_ctrls.readReqs                         760                       # Number of read requests accepted
system.mem_ctrls.writeReqs                         42                       # Number of write requests accepted
system.mem_ctrls.readBursts                       760                       # Number of DRAM read bursts, including those serviced by the write queue
system.mem_ctrls.writeBursts                       42                       # Number of DRAM write bursts, including those merged in the write queue
system.mem_ctrls.servicedByWrQ                      2                       # Number of DRAM read bursts serviced by the write queue
system.mem_ctrls.mergedWrBursts                     0                       # Number of DRAM write bursts merged with an existing one
system.mem_ctrls.neitherReadNorWriteReqs            0                       # Number of requests that are neither read nor write
system.mem_ctrls.perBankRdBursts::0                65                       # Per bank write bursts
system.mem_ctrls.perBankRdBursts::1                 3                       # Per bank write bursts
system.mem_ctrls.perBankRdBursts::2                27                       # Per bank write bursts
system.mem_ctrls.perBankRdBursts::3                 0                       # Per bank write bursts
system.mem_ctrls.perBankRdBursts::4                 6                       # Per bank write bursts
system.mem_ctrls.perBankRdBursts::5                 1                       # Per bank write bursts
system.mem_ctrls.perBankRdBursts::6                27                       # Per bank write bursts
system.mem_ctrls.perBankRdBursts::7                21                       # Per bank write bursts
system.mem_ctrls.perBankRdBursts::8                66                       # Per bank write bursts
system.mem_ctrls.perBankRdBursts::9                31                       # Per bank write bursts
system.mem_ctrls.perBankRdBursts::10               43                       # Per bank write bursts
system.mem_ctrls.perBankRdBursts::11               81                       # Per bank write bursts
system.mem_ctrls.perBankRdBursts::12               48                       # Per bank write bursts
system.mem_ctrls.perBankRdBursts::13               79                       # Per bank write bursts
system.mem_ctrls.perBankRdBursts::14              129                       # Per bank write bursts
system.mem_ctrls.perBankRdBursts::15              131                       # Per bank write bursts
system.mem_ctrls.perBankWrBursts::0                 0                       # Per bank write bursts
system.mem_ctrls.perBankWrBursts::1                 0                       # Per bank write bursts
system.mem_ctrls.perBankWrBursts::2                 0                       # Per bank write bursts
system.mem_ctrls.perBankWrBursts::3                 0                       # Per bank write bursts
system.mem_ctrls.perBankWrBursts::4                 0                       # Per bank write bursts
system.mem_ctrls.perBankWrBursts::5                 0                       # Per bank write bursts
system.mem_ctrls.perBankWrBursts::6                 0                       # Per bank write bursts
system.mem_ctrls.perBankWrBursts::7                 0                       # Per bank write bursts
system.mem_ctrls.perBankWrBursts::8                 1                       # Per bank write bursts
system.mem_ctrls.perBankWrBursts::9                 1                       # Per bank write bursts
system.mem_ctrls.perBankWrBursts::10                9                       # Per bank write bursts
system.mem_ctrls.perBankWrBursts::11                1                       # Per bank write bursts
system.mem_ctrls.perBankWrBursts::12                0                       # Per bank write bursts
system.mem_ctrls.perBankWrBursts::13                4                       # Per bank write bursts
system.mem_ctrls.perBankWrBursts::14                1                       # Per bank write bursts
system.mem_ctrls.perBankWrBursts::15                0                       # Per bank write bursts
system.mem_ctrls.avgRdQLen                       1.97                       # Average read queue length when enqueuing
system.mem_ctrls.avgWrQLen                      14.25                       # Average write queue length when enqueuing
system.mem_ctrls.totQLat                      5561750                       # Total ticks spent queuing
system.mem_ctrls.totBusLat                    3790000                       # Total ticks spent in databus transfers
system.mem_ctrls.totMemAccLat                19774250                       # Total ticks spent from burst creation until serviced by the DRAM
system.mem_ctrls.avgQLat                      7337.40                       # Average queueing delay per DRAM burst
system.mem_ctrls.avgBusLat                    5000.00                       # Average bus latency per DRAM burst
system.mem_ctrls.avgMemAccLat                26087.40                       # Average memory access latency per DRAM burst
system.mem_ctrls.numRdRetry                         0                       # Number of times read queue was full causing retry
system.mem_ctrls.numWrRetry                         0                       # Number of times write queue was full causing retry
system.mem_ctrls.readRowHits                      644                       # Number of row buffer hits during reads
system.mem_ctrls.writeRowHits                      14                       # Number of row buffer hits during writes
system.mem_ctrls.readRowHitRate                 84.96                       # Row buffer hit rate for reads
system.mem_ctrls.writeRowHitRate                33.33                       # Row buffer hit rate for writes
system.mem_ctrls.readPktSize::0                     0                       # Read request sizes (log2)
system.mem_ctrls.readPktSize::1                     0                       # Read request sizes (log2)
system.mem_ctrls.readPktSize::2                     0                       # Read request sizes (log2)
system.mem_ctrls.readPktSize::3                     0                       # Read request sizes (log2)
system.mem_ctrls.readPktSize::4                     0                       # Read request sizes (log2)
system.mem_ctrls.readPktSize::5                     0                       # Read request sizes (log2)
system.mem_ctrls.readPktSize::6                   760                       # Read request sizes (log2)
system.mem_ctrls.writePktSize::0                    0                       # Write request sizes (log2)
system.mem_ctrls.writePktSize::1                    0                       # Write request sizes (log2)
system.mem_ctrls.writePktSize::2                    0                       # Write request sizes (log2)
system.mem_ctrls.writePktSize::3                    0                       # Write request sizes (log2)
system.mem_ctrls.writePktSize::4                    0                       # Write request sizes (log2)
system.mem_ctrls.writePktSize::5                    0                       # Write request sizes (log2)
system.mem_ctrls.writePktSize::6                   42                       # Write request sizes (log2)
system.mem_ctrls.rdQLenPdf::0                     349                       # What read queue length does an incoming req see
system.mem_ctrls.rdQLenPdf::1                     210                       # What read queue length does an incoming req see
system.mem_ctrls.rdQLenPdf::2                     128                       # What read queue length does an incoming req see
system.mem_ctrls.rdQLenPdf::3                      70                       # What read queue length does an incoming req see
system.mem_ctrls.rdQLenPdf::4                       1                       # What read queue length does an incoming req see
system.mem_ctrls.rdQLenPdf::5                       0                       # What read queue length does an incoming req see
system.mem_ctrls.rdQLenPdf::6                       0                       # What read queue length does an incoming req see
system.mem_ctrls.rdQLenPdf::7                       0                       # What read queue length does an incoming req see
system.mem_ctrls.rdQLenPdf::8                       0                       # What read queue length does an incoming req see
system.mem_ctrls.rdQLenPdf::9                       0                       # What read queue length does an incoming req see
system.mem_ctrls.rdQLenPdf::10                      0                       # What read queue length does an incoming req see
system.mem_ctrls.rdQLenPdf::11                      0                       # What read queue length does an incoming req see
system.mem_ctrls.rdQLenPdf::12                      0                       # What read queue length does an incoming req see
system.mem_ctrls.rdQLenPdf::13                      0                       # What read queue length does an incoming req see
system.mem_ctrls.rdQLenPdf::14                      0                       # What read queue length does an incoming req see
system.mem_ctrls.rdQLenPdf::15                      0                       # What read queue length does an incoming req see
system.mem_ctrls.rdQLenPdf::16                      0                       # What read queue length does an incoming req see
system.mem_ctrls.rdQLenPdf::17                      0                       # What read queue length does an incoming req see
system.mem_ctrls.rdQLenPdf::18                      0                       # What read queue length does an incoming req see
system.mem_ctrls.rdQLenPdf::19                      0                       # What read queue length does an incoming req see
system.mem_ctrls.rdQLenPdf::20                      0                       # What read queue length does an incoming req see
system.mem_ctrls.rdQLenPdf::21                      0                       # What read queue length does an incoming req see
system.mem_ctrls.rdQLenPdf::22                      0                       # What read queue length does an incoming req see
system.mem_ctrls.rdQLenPdf::23                      0                       # What read queue length does an incoming req see
system.mem_ctrls.rdQLenPdf::24                      0                       # What read queue length does an incoming req see
system.mem_ctrls.rdQLenPdf::25                      0                       # What read queue length does an incoming req see
system.mem_ctrls.rdQLenPdf::26                      0                       # What read queue length does an incoming req see
system.mem_ctrls.rdQLenPdf::27                      0                       # What read queue length does an incoming req see
system.mem_ctrls.rdQLenPdf::28                      0                       # What read queue length does an incoming req see
system.mem_ctrls.rdQLenPdf::29                      0                       # What read queue length does an incoming req see
system.mem_ctrls.rdQLenPdf::30                      0                       # What read queue length does an incoming req see
system.mem_ctrls.rdQLenPdf::31                      0                       # What read queue length does an incoming req see
system.mem_ctrls.wrQLenPdf::0                       1                       # What write queue length does an incoming req see
system.mem_ctrls.wrQLenPdf::1                       1                       # What write queue length does an incoming req see
system.mem_ctrls.wrQLenPdf::2                       1                       # What write queue length does an incoming req see
system.mem_ctrls.wrQLenPdf::3                       1                       # What write queue length does an incoming req see
system.mem_ctrls.wrQLenPdf::4                       1                       # What write queue length does an incoming req see
system.mem_ctrls.wrQLenPdf::5                       1                       # What write queue length does an incoming req see
system.mem_ctrls.wrQLenPdf::6                       1                       # What write queue length does an incoming req see
system.mem_ctrls.wrQLenPdf::7                       1                       # What write queue length does an incoming req see
system.mem_ctrls.wrQLenPdf::8                       1                       # What write queue length does an incoming req see
system.mem_ctrls.wrQLenPdf::9                       1                       # What write queue length does an incoming req see
system.mem_ctrls.wrQLenPdf::10                      1                       # What write queue length does an incoming req see
system.mem_ctrls.wrQLenPdf::11                      1                       # What write queue length does an incoming req see
system.mem_ctrls.wrQLenPdf::12                      1                       # What write queue length does an incoming req see
system.mem_ctrls.wrQLenPdf::13                      1                       # What write queue length does an incoming req see
system.mem_ctrls.wrQLenPdf::14                      1                       # What write queue length does an incoming req see
[...]
system.cpu.dcache.demand_miss_latency::total     52128998                       # number of demand (read+write) miss cycles
system.cpu.dcache.overall_miss_latency::.cpu.data     52128998                       # number of overall miss cycles
system.cpu.dcache.overall_miss_latency::total     52128998                       # number of overall miss cycles
system.cpu.dcache.demand_accesses::.cpu.data       130140                       # number of demand (read+write) accesses
system.cpu.dcache.demand_accesses::total       130140                       # number of demand (read+write) accesses
system.cpu.dcache.overall_accesses::.cpu.data       130146                       # number of overall (read+write) accesses
system.cpu.dcache.overall_accesses::total       130146                       # number of overall (read+write) accesses
system.cpu.dcache.demand_miss_rate::.cpu.data     0.007769                       # miss rate for demand accesses
system.cpu.dcache.demand_miss_rate::total     0.007769                       # miss rate for demand accesses
system.cpu.dcache.overall_miss_rate::.cpu.data     0.007784                       # miss rate for overall accesses
system.cpu.dcache.overall_miss_rate::total     0.007784                       # miss rate for overall accesses
system.cpu.dcache.demand_avg_miss_latency::.cpu.data 51561.818002                       # average overall miss latency
system.cpu.dcache.demand_avg_miss_latency::total 51561.818002                       # average overall miss latency
system.cpu.dcache.overall_avg_miss_latency::.cpu.data 51460.017769                       # average overall miss latency
system.cpu.dcache.overall_avg_miss_latency::total 51460.017769                       # average overall miss latency
system.cpu.dcache.blocked_cycles::no_mshrs         6773                       # number of cycles access was blocked
system.cpu.dcache.blocked_cycles::no_targets            0                       # number of cycles access was blocked
system.cpu.dcache.blocked::no_mshrs               255                       # number of cycles access was blocked
system.cpu.dcache.blocked::no_targets               0                       # number of cycles access was blocked
system.cpu.dcache.avg_blocked_cycles::no_mshrs    26.560784                       # average number of cycles each access was blocked
system.cpu.dcache.avg_blocked_cycles::no_targets          nan                       # average number of cycles each access was blocked
system.cpu.dcache.writebacks::.writebacks            1                       # number of writebacks
system.cpu.dcache.writebacks::total                 1                       # number of writebacks
system.cpu.dcache.demand_mshr_hits::.cpu.data          575                       # number of demand (read+write) MSHR hits
system.cpu.dcache.demand_mshr_hits::total          575                       # number of demand (read+write) MSHR hits
system.cpu.dcache.overall_mshr_hits::.cpu.data          575                       # number of overall MSHR hits
system.cpu.dcache.overall_mshr_hits::total          575                       # number of overall MSHR hits
system.cpu.dcache.demand_mshr_misses::.cpu.data          436                       # number of demand (read+write) MSHR misses
system.cpu.dcache.demand_mshr_misses::total          436                       # number of demand (read+write) MSHR misses
system.cpu.dcache.overall_mshr_misses::.cpu.data          438                       # number of overall MSHR misses
system.cpu.dcache.overall_mshr_misses::total          438                       # number of overall MSHR misses
system.cpu.dcache.demand_mshr_miss_latency::.cpu.data     24991999                       # number of demand (read+write) MSHR miss cycles
system.cpu.dcache.demand_mshr_miss_latency::total     24991999                       # number of demand (read+write) MSHR miss cycles
system.cpu.dcache.overall_mshr_miss_latency::.cpu.data     25133999                       # number of overall MSHR miss cycles
system.cpu.dcache.overall_mshr_miss_latency::total     25133999                       # number of overall MSHR miss cycles
system.cpu.dcache.demand_mshr_miss_rate::.cpu.data     0.003350                       # mshr miss rate for demand accesses
system.cpu.dcache.demand_mshr_miss_rate::total     0.003350                       # mshr miss rate for demand accesses
system.cpu.dcache.overall_mshr_miss_rate::.cpu.data     0.003365                       # mshr miss rate for overall accesses
system.cpu.dcache.overall_mshr_miss_rate::total     0.003365                       # mshr miss rate for overall accesses
system.cpu.dcache.demand_avg_mshr_miss_latency::.cpu.data 57321.098624                       # average overall mshr miss latency
system.cpu.dcache.demand_avg_mshr_miss_latency::total 57321.098624                       # average overall mshr miss latency
system.cpu.dcache.overall_avg_mshr_miss_latency::.cpu.data 57383.559361                       # average overall mshr miss latency
system.cpu.dcache.overall_avg_mshr_miss_latency::total 57383.559361                       # average overall mshr miss latency
system.cpu.dcache.replacements                      4                       # number of replacements
system.cpu.dcache.ReadReq_hits::.cpu.data        96454                       # number of ReadReq hits
system.cpu.dcache.ReadReq_hits::total           96454                       # number of ReadReq hits
system.cpu.dcache.ReadReq_misses::.cpu.data          607                       # number of ReadReq misses
system.cpu.dcache.ReadReq_misses::total           607                       # number of ReadReq misses
system.cpu.dcache.ReadReq_miss_latency::.cpu.data     28281500                       # number of ReadReq miss cycles
system.cpu.dcache.ReadReq_miss_latency::total     28281500                       # number of ReadReq miss cycles
system.cpu.dcache.ReadReq_accesses::.cpu.data        97061                       # number of ReadReq accesses(hits+misses)
system.cpu.dcache.ReadReq_accesses::total        97061                       # number of ReadReq accesses(hits+misses)
system.cpu.dcache.ReadReq_miss_rate::.cpu.data     0.006254                       # miss rate for ReadReq accesses
system.cpu.dcache.ReadReq_miss_rate::total     0.006254                       # miss rate for ReadReq accesses
system.cpu.dcache.ReadReq_avg_miss_latency::.cpu.data 46592.257002                       # average ReadReq miss latency
system.cpu.dcache.ReadReq_avg_miss_latency::total 46592.257002                       # average ReadReq miss latency
system.cpu.dcache.ReadReq_mshr_hits::.cpu.data          264                       # number of ReadReq MSHR hits
system.cpu.dcache.ReadReq_mshr_hits::total          264                       # number of ReadReq MSHR hits
system.cpu.dcache.ReadReq_mshr_misses::.cpu.data          343                       # number of ReadReq MSHR misses
system.cpu.dcache.ReadReq_mshr_misses::total          343                       # number of ReadReq MSHR misses
system.cpu.dcache.ReadReq_mshr_miss_latency::.cpu.data     19316000                       # number of ReadReq MSHR miss cycles
system.cpu.dcache.ReadReq_mshr_miss_latency::total     19316000                       # number of ReadReq MSHR miss cycles
system.cpu.dcache.ReadReq_mshr_miss_rate::.cpu.data     0.003534                       # mshr miss rate for ReadReq accesses
system.cpu.dcache.ReadReq_mshr_miss_rate::total     0.003534                       # mshr miss rate for ReadReq accesses
system.cpu.dcache.ReadReq_avg_mshr_miss_latency::.cpu.data 56314.868805                       # average ReadReq mshr miss latency
system.cpu.dcache.ReadReq_avg_mshr_miss_latency::total 56314.868805                       # average ReadReq mshr miss latency
system.cpu.dcache.WriteReq_hits::.cpu.data        13475                       # number of WriteReq hits
system.cpu.dcache.WriteReq_hits::total          13475                       # number of WriteReq hits
system.cpu.dcache.WriteReq_misses::.cpu.data          397                       # number of WriteReq misses
system.cpu.dcache.WriteReq_misses::total          397                       # number of WriteReq misses
system.cpu.dcache.WriteReq_miss_latency::.cpu.data     23774498                       # number of WriteReq miss cycles
system.cpu.dcache.WriteReq_miss_latency::total     23774498                       # number of WriteReq miss cycles
system.cpu.dcache.WriteReq_accesses::.cpu.data        13872                       # number of WriteReq accesses(hits+misses)
system.cpu.dcache.WriteReq_accesses::total        13872                       # number of WriteReq accesses(hits+misses)
system.cpu.dcache.WriteReq_miss_rate::.cpu.data     0.028619                       # miss rate for WriteReq accesses
system.cpu.dcache.WriteReq_miss_rate::total     0.028619                       # miss rate for WriteReq accesses
system.cpu.dcache.WriteReq_avg_miss_latency::.cpu.data 59885.385390                       # average WriteReq miss latency
system.cpu.dcache.WriteReq_avg_miss_latency::total 59885.385390                       # average WriteReq miss latency
system.cpu.dcache.WriteReq_mshr_hits::.cpu.data          311                       # number of WriteReq MSHR hits
system.cpu.dcache.WriteReq_mshr_hits::total          311                       # number of WriteReq MSHR hits
system.cpu.dcache.WriteReq_mshr_misses::.cpu.data           86                       # number of WriteReq MSHR misses
system.cpu.dcache.WriteReq_mshr_misses::total           86                       # number of WriteReq MSHR misses
system.cpu.dcache.WriteReq_mshr_miss_latency::.cpu.data      5609999                       # number of WriteReq MSHR miss cycles
system.cpu.dcache.WriteReq_mshr_miss_latency::total      5609999                       # number of WriteReq MSHR miss cycles
system.cpu.dcache.WriteReq_mshr_miss_rate::.cpu.data     0.006200                       # mshr miss rate for WriteReq accesses
system.cpu.dcache.WriteReq_mshr_miss_rate::total     0.006200                       # mshr miss rate for WriteReq accesses
system.cpu.dcache.WriteReq_avg_mshr_miss_latency::.cpu.data 65232.546512                       # average WriteReq mshr miss latency
system.cpu.dcache.WriteReq_avg_mshr_miss_latency::total 65232.546512                       # average WriteReq mshr miss latency
system.cpu.dcache.SoftPFReq_hits::.cpu.data            4                       # number of SoftPFReq hits
system.cpu.dcache.SoftPFReq_hits::total             4                       # number of SoftPFReq hits
system.cpu.dcache.SoftPFReq_misses::.cpu.data            2                       # number of SoftPFReq misses
system.cpu.dcache.SoftPFReq_misses::total            2                       # number of SoftPFReq misses
system.cpu.dcache.SoftPFReq_accesses::.cpu.data            6                       # number of SoftPFReq accesses(hits+misses)
system.cpu.dcache.SoftPFReq_accesses::total            6                       # number of SoftPFReq accesses(hits+misses)
system.cpu.dcache.SoftPFReq_miss_rate::.cpu.data     0.333333                       # miss rate for SoftPFReq accesses
system.cpu.dcache.SoftPFReq_miss_rate::total     0.333333                       # miss rate for SoftPFReq accesses
system.cpu.dcache.SoftPFReq_mshr_misses::.cpu.data            2                       # number of SoftPFReq MSHR misses
system.cpu.dcache.SoftPFReq_mshr_misses::total            2                       # number of SoftPFReq MSHR misses
system.cpu.dcache.SoftPFReq_mshr_miss_latency::.cpu.data       142000                       # number of SoftPFReq MSHR miss cycles
system.cpu.dcache.SoftPFReq_mshr_miss_latency::total       142000                       # number of SoftPFReq MSHR miss cycles
system.cpu.dcache.SoftPFReq_mshr_miss_rate::.cpu.data     0.333333                       # mshr miss rate for SoftPFReq accesses
system.cpu.dcache.SoftPFReq_mshr_miss_rate::total     0.333333                       # mshr miss rate for SoftPFReq accesses
system.cpu.dcache.SoftPFReq_avg_mshr_miss_latency::.cpu.data        71000                       # average SoftPFReq mshr miss latency
system.cpu.dcache.SoftPFReq_avg_mshr_miss_latency::total        71000                       # average SoftPFReq mshr miss latency
system.cpu.dcache.WriteLineReq_hits::.cpu.data        19200                       # number of WriteLineReq hits
system.cpu.dcache.WriteLineReq_hits::total        19200                       # number of WriteLineReq hits
system.cpu.dcache.WriteLineReq_misses::.cpu.data            7                       # number of WriteLineReq misses
system.cpu.dcache.WriteLineReq_misses::total            7                       # number of WriteLineReq misses
system.cpu.dcache.WriteLineReq_miss_latency::.cpu.data        73000                       # number of WriteLineReq miss cycles
system.cpu.dcache.WriteLineReq_miss_latency::total        73000                       # number of WriteLineReq miss cycles
system.cpu.dcache.WriteLineReq_accesses::.cpu.data        19207                       # number of WriteLineReq accesses(hits+misses)
system.cpu.dcache.WriteLineReq_accesses::total        19207                       # number of WriteLineReq accesses(hits+misses)
system.cpu.dcache.WriteLineReq_miss_rate::.cpu.data     0.000364                       # miss rate for WriteLineReq accesses
system.cpu.dcache.WriteLineReq_miss_rate::total     0.000364                       # miss rate for WriteLineReq accesses
system.cpu.dcache.WriteLineReq_avg_miss_latency::.cpu.data 10428.571429                       # average WriteLineReq miss latency
system.cpu.dcache.WriteLineReq_avg_miss_latency::total 10428.571429                       # average WriteLineReq miss latency
system.cpu.dcache.WriteLineReq_mshr_misses::.cpu.data            7                       # number of WriteLineReq MSHR misses
system.cpu.dcache.WriteLineReq_mshr_misses::total            7                       # number of WriteLineReq MSHR misses
system.cpu.dcache.WriteLineReq_mshr_miss_latency::.cpu.data        66000                       # number of WriteLineReq MSHR miss cycles
system.cpu.dcache.WriteLineReq_mshr_miss_latency::total        66000                       # number of WriteLineReq MSHR miss cycles
system.cpu.dcache.WriteLineReq_mshr_miss_rate::.cpu.data     0.000364                       # mshr miss rate for WriteLineReq accesses
system.cpu.dcache.WriteLineReq_mshr_miss_rate::total     0.000364                       # mshr miss rate for WriteLineReq accesses
system.cpu.dcache.WriteLineReq_avg_mshr_miss_latency::.cpu.data  9428.571429                       # average WriteLineReq mshr miss latency
system.cpu.dcache.WriteLineReq_avg_mshr_miss_latency::total  9428.571429                       # average WriteLineReq mshr miss latency
system.cpu.dcache.LoadLockedReq_hits::.cpu.data           14                       # number of LoadLockedReq hits
system.cpu.dcache.LoadLockedReq_hits::total           14                       # number of LoadLockedReq hits
system.cpu.dcache.LoadLockedReq_misses::.cpu.data            2                       # number of LoadLockedReq misses
system.cpu.dcache.LoadLockedReq_misses::total            2                       # number of LoadLockedReq misses
system.cpu.dcache.LoadLockedReq_miss_latency::.cpu.data       109000                       # number of LoadLockedReq miss cycles
system.cpu.dcache.LoadLockedReq_miss_latency::total       109000                       # number of LoadLockedReq miss cycles
system.cpu.dcache.LoadLockedReq_accesses::.cpu.data           16                       # number of LoadLockedReq accesses(hits+misses)
system.cpu.dcache.LoadLockedReq_accesses::total           16                       # number of LoadLockedReq accesses(hits+misses)
system.cpu.dcache.LoadLockedReq_miss_rate::.cpu.data     0.125000                       # miss rate for LoadLockedReq accesses
system.cpu.dcache.LoadLockedReq_miss_rate::total     0.125000                       # miss rate for LoadLockedReq accesses
system.cpu.dcache.LoadLockedReq_avg_miss_latency::.cpu.data        54500                       # average LoadLockedReq miss latency
system.cpu.dcache.LoadLockedReq_avg_miss_latency::total        54500                       # average LoadLockedReq miss latency
system.cpu.dcache.LoadLockedReq_mshr_hits::.cpu.data            1                       # number of LoadLockedReq MSHR hits
system.cpu.dcache.LoadLockedReq_mshr_hits::total            1                       # number of LoadLockedReq MSHR hits
system.cpu.dcache.LoadLockedReq_mshr_misses::.cpu.data            1                       # number of LoadLockedReq MSHR misses
system.cpu.dcache.LoadLockedReq_mshr_misses::total            1                       # number of LoadLockedReq MSHR misses
system.cpu.dcache.LoadLockedReq_mshr_miss_latency::.cpu.data        50500                       # number of LoadLockedReq MSHR miss cycles
system.cpu.dcache.LoadLockedReq_mshr_miss_latency::total        50500                       # number of LoadLockedReq MSHR miss cycles
system.cpu.dcache.LoadLockedReq_mshr_miss_rate::.cpu.data     0.062500                       # mshr miss rate for LoadLockedReq accesses
system.cpu.dcache.LoadLockedReq_mshr_miss_rate::total     0.062500                       # mshr miss rate for LoadLockedReq accesses
system.cpu.dcache.LoadLockedReq_avg_mshr_miss_latency::.cpu.data        50500                       # average LoadLockedReq mshr miss latency
system.cpu.dcache.LoadLockedReq_avg_mshr_miss_latency::total        50500                       # average LoadLockedReq mshr miss latency
system.cpu.dcache.StoreCondReq_hits::.cpu.data           14                       # number of StoreCondReq hits
system.cpu.dcache.StoreCondReq_hits::total           14                       # number of StoreCondReq hits
system.cpu.dcache.StoreCondReq_accesses::.cpu.data           14                       # number of StoreCondReq accesses(hits+misses)
system.cpu.dcache.StoreCondReq_accesses::total           14                       # number of StoreCondReq accesses(hits+misses)
system.cpu.dcache.tags.pwrStateResidencyTicks::UNDEFINED     51190000                       # Cumulative time (in ticks) in various power states
system.cpu.dcache.tags.tagsinuse           298.264898                       # Cycle average of tags in use
system.cpu.dcache.tags.total_refs              129600                       # Total number of references to valid blocks.
system.cpu.dcache.tags.sampled_refs               439                       # Sample count of references to valid blocks.
system.cpu.dcache.tags.avg_refs            295.216401                       # Average number of references to valid blocks.
system.cpu.dcache.tags.warmup_cycle            147000                       # Cycle when the warmup percentage was hit.
system.cpu.dcache.tags.occ_blocks::.cpu.data   298.264898                       # Average occupied blocks per requestor
system.cpu.dcache.tags.occ_percent::.cpu.data     0.291274                       # Average percentage of cache occupancy
system.cpu.dcache.tags.occ_percent::total     0.291274                       # Average percentage of cache occupancy
system.cpu.dcache.tags.occ_task_id_blocks::1024          435                       # Occupied blocks per task id
system.cpu.dcache.tags.age_task_id_blocks_1024::0           21                       # Occupied blocks per task id
system.cpu.dcache.tags.age_task_id_blocks_1024::1          414                       # Occupied blocks per task id
system.cpu.dcache.tags.occ_task_id_percent::1024     0.424805                       # Percentage of cache occupancy per task id
system.cpu.dcache.tags.tag_accesses            260791                       # Number of tag accesses
system.cpu.dcache.tags.data_accesses           260791                       # Number of data accesses

---------- End Simulation Statistics   ----------
