
---------- Begin Simulation Statistics ----------
final_tick                                  438905000                       # Number of ticks from beginning of simulation (restored from checkpoints and never reset)
host_inst_rate                                 258602                       # Simulator instruction rate (inst/s)
host_mem_usage                                 818324                       # Number of bytes of host memory used
host_op_rate                                   258865                       # Simulator op (including micro ops) rate (op/s)
host_seconds                                     3.98                       # Real time elapsed on the host
host_tick_rate                              110294307                       # Simulator tick rate (ticks/s)
sim_freq                                 1000000000000                       # Frequency of simulated ticks
sim_insts                                     1029048                       # Number of instructions simulated
sim_ops                                       1030123                       # Number of ops (including micro ops) simulated
sim_seconds                                  0.000439                       # Number of seconds simulated
sim_ticks                                   438905000                       # Number of ticks simulated
system.cpu.branchPred.BTBCorrect                    0                       # Number of correct BTB predictions (this stat may not work properly.
system.cpu.branchPred.BTBHitPct             99.689282                       # BTB Hit Percentage
system.cpu.branchPred.BTBHits                  102988                       # Number of BTB hits
system.cpu.branchPred.BTBLookups               103309                       # Number of BTB lookups
system.cpu.branchPred.RASInCorrect                  0                       # Number of incorrect RAS predictions.
system.cpu.branchPred.condIncorrect               760                       # Number of conditional branches incorrect
system.cpu.branchPred.condPredicted            104489                       # Number of conditional branches predicted
system.cpu.branchPred.indirectHits                  0                       # Number of indirect target hits.
system.cpu.branchPred.indirectLookups              77                       # Number of indirect predictor lookups.
system.cpu.branchPred.indirectMisses               77                       # Number of indirect misses.
system.cpu.branchPred.lookups                  105245                       # Number of BP lookups
system.cpu.branchPred.usedRAS                     247                       # Number of times the RAS was used to get a target.
system.cpu.branchPredindirectMispredicted           35                       # Number of mispredicted indirect branches.
system.cpu.cc_regfile_reads                    309480                       # number of cc regfile reads
system.cpu.cc_regfile_writes                   309444                       # number of cc regfile writes
system.cpu.commit.amos                              0                       # Number of atomic instructions committed
system.cpu.commit.branchMispredicts               606                       # The number of times a branch was mispredicted
system.cpu.commit.branches                     103672                       # Number of branches committed
system.cpu.commit.bw_lim_events                102247                       # number cycles where commit BW limit reached
system.cpu.commit.commitNonSpecStalls              22                       # The number of times commit has been forced to stall to communicate backwards
system.cpu.commit.commitSquashedInsts            3128                       # The number of squashed insts skipped by commit
system.cpu.commit.committedInsts              1029065                       # Number of instructions committed
system.cpu.commit.committedOps                1030140                       # Number of ops (including micro ops) committed
system.cpu.commit.committed_per_cycle::samples       855294                       # Number of insts commited each cycle
system.cpu.commit.committed_per_cycle::mean     1.204428                       # Number of insts commited each cycle
system.cpu.commit.committed_per_cycle::stdev     2.544871                       # Number of insts commited each cycle
system.cpu.commit.committed_per_cycle::underflows            0      0.00%      0.00% # Number of insts commited each cycle
system.cpu.commit.committed_per_cycle::0       548722     64.16%     64.16% # Number of insts commited each cycle
system.cpu.commit.committed_per_cycle::1       198683     23.23%     87.39% # Number of insts commited each cycle
system.cpu.commit.committed_per_cycle::2         4682      0.55%     87.93% # Number of insts commited each cycle
system.cpu.commit.committed_per_cycle::3          305      0.04%     87.97% # Number of insts commited each cycle
system.cpu.commit.committed_per_cycle::4          165      0.02%     87.99% # Number of insts commited each cycle
system.cpu.commit.committed_per_cycle::5          426      0.05%     88.04% # Number of insts commited each cycle
system.cpu.commit.committed_per_cycle::6           36      0.00%     88.04% # Number of insts commited each cycle
system.cpu.commit.committed_per_cycle::7           28      0.00%     88.05% # Number of insts commited each cycle
system.cpu.commit.committed_per_cycle::8       102247     11.95%    100.00% # Number of insts commited each cycle
system.cpu.commit.committed_per_cycle::overflows            0      0.00%    100.00% # Number of insts commited each cycle
system.cpu.commit.committed_per_cycle::min_value            0                       # Number of insts commited each cycle
system.cpu.commit.committed_per_cycle::max_value            8                       # Number of insts commited each cycle
system.cpu.commit.committed_per_cycle::total       855294                       # Number of insts commited each cycle
system.cpu.commit.fp_insts                          0                       # Number of committed floating point instructions.
system.cpu.commit.function_calls                  111                       # Number of function calls committed.
system.cpu.commit.int_insts                    620026                       # Number of committed integer instructions.
system.cpu.commit.loads                        307715                       # Number of loads committed
system.cpu.commit.membars                          14                       # Number of memory barriers committed
system.cpu.commit.op_class_0::No_OpClass            2      0.00%      0.00% # Class of committed instruction
system.cpu.commit.op_class_0::IntAlu           107387     10.42%     10.42% # Class of committed instruction
system.cpu.commit.op_class_0::IntMult               3      0.00%     10.42% # Class of committed instruction
system.cpu.commit.op_class_0::IntDiv                2      0.00%     10.43% # Class of committed instruction
system.cpu.commit.op_class_0::FloatAdd              0      0.00%     10.43% # Class of committed instruction
system.cpu.commit.op_class_0::FloatCmp              0      0.00%     10.43% # Class of committed instruction
system.cpu.commit.op_class_0::FloatCvt              0      0.00%     10.43% # Class of committed instruction
system.cpu.commit.op_class_0::FloatMult             0      0.00%     10.43% # Class of committed instruction
system.cpu.commit.op_class_0::FloatMultAcc            0      0.00%     10.43% # Class of committed instruction
system.cpu.commit.op_class_0::FloatDiv              0      0.00%     10.43% # Class of committed instruction
system.cpu.commit.op_class_0::FloatMisc             0      0.00%     10.43% # Class of committed instruction
system.cpu.commit.op_class_0::FloatSqrt             0      0.00%     10.43% # Class of committed instruction
system.cpu.commit.op_class_0::SimdAdd              11      0.00%     10.43% # Class of committed instruction
system.cpu.commit.op_class_0::SimdAddAcc            0      0.00%     10.43% # Class of committed instruction
system.cpu.commit.op_class_0::SimdAlu          102308      9.93%     20.36% # Class of committed instruction
system.cpu.commit.op_class_0::SimdCmp          102309      9.93%     30.29% # Class of committed instruction
system.cpu.commit.op_class_0::SimdCvt               0      0.00%     30.29% # Class of committed instruction
system.cpu.commit.op_class_0::SimdMisc              8      0.00%     30.29% # Class of committed instruction
system.cpu.commit.op_class_0::SimdMult              0      0.00%     30.29% # Class of committed instruction
system.cpu.commit.op_class_0::SimdMultAcc            0      0.00%     30.29% # Class of committed instruction
system.cpu.commit.op_class_0::SimdShift             0      0.00%     30.29% # Class of committed instruction
system.cpu.commit.op_class_0::SimdShiftAcc            0      0.00%     30.29% # Class of committed instruction
system.cpu.commit.op_class_0::SimdDiv               0      0.00%     30.29% # Class of committed instruction
system.cpu.commit.op_class_0::SimdSqrt              0      0.00%     30.29% # Class of committed instruction
system.cpu.commit.op_class_0::SimdFloatAdd       204600     19.86%     50.15% # Class of committed instruction
system.cpu.commit.op_class_0::SimdFloatAlu            1      0.00%     50.15% # Class of committed instruction
system.cpu.commit.op_class_0::SimdFloatCmp            0      0.00%     50.15% # Class of committed instruction
system.cpu.commit.op_class_0::SimdFloatCvt            0      0.00%     50.15% # Class of committed instruction
system.cpu.commit.op_class_0::SimdFloatDiv       102300      9.93%     60.08% # Class of committed instruction
system.cpu.commit.op_class_0::SimdFloatMisc            0      0.00%     60.08% # Class of committed instruction
system.cpu.commit.op_class_0::SimdFloatMult            0      0.00%     60.08% # Class of committed instruction
system.cpu.commit.op_class_0::SimdFloatMultAcc            0      0.00%     60.08% # Class of committed instruction
system.cpu.commit.op_class_0::SimdFloatSqrt            0      0.00%     60.08% # Class of committed instruction
system.cpu.commit.op_class_0::SimdReduceAdd            0      0.00%     60.08% # Class of committed instruction
system.cpu.commit.op_class_0::SimdReduceAlu            0      0.00%     60.08% # Class of committed instruction
system.cpu.commit.op_class_0::SimdReduceCmp            0      0.00%     60.08% # Class of committed instruction
system.cpu.commit.op_class_0::SimdFloatReduceAdd            0      0.00%     60.08% # Class of committed instruction
system.cpu.commit.op_class_0::SimdFloatReduceCmp            0      0.00%     60.08% # Class of committed instruction
system.cpu.commit.op_class_0::SimdAes               0      0.00%     60.08% # Class of committed instruction
system.cpu.commit.op_class_0::SimdAesMix            0      0.00%     60.08% # Class of committed instruction
system.cpu.commit.op_class_0::SimdSha1Hash            0      0.00%     60.08% # Class of committed instruction
system.cpu.commit.op_class_0::SimdSha1Hash2            0      0.00%     60.08% # Class of committed instruction
system.cpu.commit.op_class_0::SimdSha256Hash            0      0.00%     60.08% # Class of committed instruction
system.cpu.commit.op_class_0::SimdSha256Hash2            0      0.00%     60.08% # Class of committed instruction
system.cpu.commit.op_class_0::SimdShaSigma2            0      0.00%     60.08% # Class of committed instruction
system.cpu.commit.op_class_0::SimdShaSigma3            0      0.00%     60.08% # Class of committed instruction
system.cpu.commit.op_class_0::SimdPredAlu          101      0.01%     60.09% # Class of committed instruction
system.cpu.commit.op_class_0::MemRead          307715     29.87%     89.96% # Class of committed instruction
system.cpu.commit.op_class_0::MemWrite         103393     10.04%    100.00% # Class of committed instruction
system.cpu.commit.op_class_0::FloatMemRead            0      0.00%    100.00% # Class of committed instruction
system.cpu.commit.op_class_0::FloatMemWrite            0      0.00%    100.00% # Class of committed instruction
system.cpu.commit.op_class_0::IprAccess             0      0.00%    100.00% # Class of committed instruction
system.cpu.commit.op_class_0::InstPrefetch            0      0.00%    100.00% # Class of committed instruction
system.cpu.commit.op_class_0::total           1030140                       # Class of committed instruction
system.cpu.commit.refs                         411108                       # Number of memory references committed
system.cpu.commit.swp_count                         0                       # Number of s/w prefetches committed
system.cpu.commit.vec_insts                    716182                       # Number of committed Vector instructions.
system.cpu.committedInsts                     1029048                       # Number of Instructions Simulated
system.cpu.committedOps                       1030123                       # Number of Ops (including micro ops) Simulated
system.cpu.cpi                               0.853032                       # CPI: Cycles Per Instruction
system.cpu.cpi_total                         0.853032                       # CPI: Total CPI of All Threads
system.cpu.decode.BlockedCycles                366877                       # Number of cycles decode is blocked
system.cpu.decode.BranchMispred                   159                       # Number of times decode detected a branch misprediction
system.cpu.decode.BranchResolved               102885                       # Number of times decode resolved a branch
system.cpu.decode.DecodedInsts                1035910                       # Number of instructions handled by decode
system.cpu.decode.IdleCycles                   133104                       # Number of cycles decode is idle
system.cpu.decode.RunCycles                    200660                       # Number of cycles decode is running
system.cpu.decode.SquashCycles                    616                       # Number of cycles decode is squashing
system.cpu.decode.SquashedInsts                  1921                       # Number of squashed instructions handled by decode
system.cpu.decode.UnblockCycles                154858                       # Number of cycles decode is unblocking
system.cpu.dtb.accesses                             0                       # DTB accesses
system.cpu.dtb.align_faults                         0                       # Number of TLB faults due to alignment restrictions
system.cpu.dtb.domain_faults                        0                       # Number of TLB faults due to domain restrictions
system.cpu.dtb.flush_entries                        0                       # Number of entries that have been flushed from TLB
system.cpu.dtb.flush_tlb                            0                       # Number of times complete TLB was flushed
system.cpu.dtb.flush_tlb_asid                       0                       # Number of times TLB was flushed by ASID
system.cpu.dtb.flush_tlb_mva                        0                       # Number of times TLB was flushed by MVA
system.cpu.dtb.flush_tlb_mva_asid                   0                       # Number of times TLB was flushed by MVA & ASID
system.cpu.dtb.hits                                 0                       # DTB hits
system.cpu.dtb.inst_accesses                        0                       # ITB inst accesses
system.cpu.dtb.inst_hits                            0                       # ITB inst hits
system.cpu.dtb.inst_misses                          0                       # ITB inst misses
system.cpu.dtb.misses                               0                       # DTB misses
system.cpu.dtb.perms_faults                         0                       # Number of TLB faults due to permissions restrictions
system.cpu.dtb.prefetch_faults                      0                       # Number of TLB faults due to prefetch
system.cpu.dtb.read_accesses                        0                       # DTB read accesses
system.cpu.dtb.read_hits                            0                       # DTB read hits
system.cpu.dtb.read_misses                          0                       # DTB read misses
system.cpu.dtb.stage2_mmu.stage2_tlb.accesses            0                       # DTB accesses
system.cpu.dtb.stage2_mmu.stage2_tlb.align_faults            0                       # Number of TLB faults due to alignment restrictions
system.cpu.dtb.stage2_mmu.stage2_tlb.domain_faults            0                       # Number of TLB faults due to domain restrictions
system.cpu.dtb.stage2_mmu.stage2_tlb.flush_entries            0                       # Number of entries that have been flushed from TLB
system.cpu.dtb.stage2_mmu.stage2_tlb.flush_tlb            0                       # Number of times complete TLB was flushed
system.cpu.dtb.stage2_mmu.stage2_tlb.flush_tlb_asid            0                       # Number of times TLB was flushed by ASID
system.cpu.dtb.stage2_mmu.stage2_tlb.flush_tlb_mva            0                       # Number of times TLB was flushed by MVA
system.cpu.dtb.stage2_mmu.stage2_tlb.flush_tlb_mva_asid            0                       # Number of times TLB was flushed by MVA & ASID
system.cpu.dtb.stage2_mmu.stage2_tlb.hits            0                       # DTB hits
system.cpu.dtb.stage2_mmu.stage2_tlb.inst_accesses            0                       # ITB inst accesses
system.cpu.dtb.stage2_mmu.stage2_tlb.inst_hits            0                       # ITB inst hits
system.cpu.dtb.stage2_mmu.stage2_tlb.inst_misses            0                       # ITB inst misses
system.cpu.dtb.stage2_mmu.stage2_tlb.misses            0                       # DTB misses
system.cpu.dtb.stage2_mmu.stage2_tlb.perms_faults            0                       # Number of TLB faults due to permissions restrictions
system.cpu.dtb.stage2_mmu.stage2_tlb.prefetch_faults            0                       # Number of TLB faults due to prefetch
system.cpu.dtb.stage2_mmu.stage2_tlb.read_accesses            0                       # DTB read accesses
system.cpu.dtb.stage2_mmu.stage2_tlb.read_hits            0                       # DTB read hits
system.cpu.dtb.stage2_mmu.stage2_tlb.read_misses            0                       # DTB read misses
system.cpu.dtb.stage2_mmu.stage2_tlb.walker.walkRequestOrigin_Requested::Data            0                       # Table walker requests started/completed, data/inst
system.cpu.dtb.stage2_mmu.stage2_tlb.walker.walkRequestOrigin_Requested::Inst            0                       # Table walker requests started/completed, data/inst
system.cpu.dtb.stage2_mmu.stage2_tlb.walker.walkRequestOrigin_Requested::total            0                       # Table walker requests started/completed, data/inst
system.cpu.dtb.stage2_mmu.stage2_tlb.walker.walkRequestOrigin_Completed::Data            0                       # Table walker requests started/completed, data/inst
system.cpu.dtb.stage2_mmu.stage2_tlb.walker.walkRequestOrigin_Completed::Inst            0                       # Table walker requests started/completed, data/inst
system.cpu.dtb.stage2_mmu.stage2_tlb.walker.walkRequestOrigin_Completed::total            0                       # Table walker requests started/completed, data/inst
system.cpu.dtb.stage2_mmu.stage2_tlb.walker.walkRequestOrigin::total            0                       # Table walker requests started/completed, data/inst
system.cpu.dtb.stage2_mmu.stage2_tlb.walker.walks            0                       # Table walker walks requested
system.cpu.dtb.stage2_mmu.stage2_tlb.write_accesses            0                       # DTB write accesses
system.cpu.dtb.stage2_mmu.stage2_tlb.write_hits            0                       # DTB write hits
system.cpu.dtb.stage2_mmu.stage2_tlb.write_misses            0                       # DTB write misses
system.cpu.dtb.walker.walkRequestOrigin_Requested::Data            0                       # Table walker requests started/completed, data/inst
system.cpu.dtb.walker.walkRequestOrigin_Requested::Inst            0                       # Table walker requests started/completed, data/inst
system.cpu.dtb.walker.walkRequestOrigin_Requested::total            0                       # Table walker requests started/completed, data/inst
system.cpu.dtb.walker.walkRequestOrigin_Completed::Data            0                       # Table walker requests started/completed, data/inst
system.cpu.dtb.walker.walkRequestOrigin_Completed::Inst            0                       # Table walker requests started/completed, data/inst
system.cpu.dtb.walker.walkRequestOrigin_Completed::total            0                       # Table walker requests started/completed, data/inst
system.cpu.dtb.walker.walkRequestOrigin::total            0                       # Table walker requests started/completed, data/inst
system.cpu.dtb.walker.walks                         0                       # Table walker walks requested
system.cpu.dtb.write_accesses                       0                       # DTB write accesses
system.cpu.dtb.write_hits                           0                       # DTB write hits
system.cpu.dtb.write_misses                         0                       # DTB write misses
system.cpu.fetch.Branches                      105245                       # Number of branches that fetch encountered
system.cpu.fetch.CacheLines                    312040                       # Number of cache lines fetched
system.cpu.fetch.Cycles                        534894                       # Number of cycles fetch has run and was not squashing or blocked
system.cpu.fetch.IcacheSquashes                   466                       # Number of outstanding Icache misses that were squashed
system.cpu.fetch.IcacheWaitRetryStallCycles           11                       # Number of stall cycles due to full MSHR
system.cpu.fetch.Insts                        1038578                       # Number of instructions fetch has processed
system.cpu.fetch.MiscStallCycles                    1                       # Number of cycles fetch has spent waiting on interrupts, or bad addresses, or out of MSHRs
system.cpu.fetch.SquashCycles                    1540                       # Number of cycles fetch has spent squashing
system.cpu.fetch.branchRate                  0.119895                       # Number of branch fetches per cycle
system.cpu.fetch.icacheStallCycles             320439                       # Number of cycles fetch is stalled on an Icache miss
system.cpu.fetch.predictedBranches             103235                       # Number of branches that fetch has predicted taken
system.cpu.fetch.rate                        1.183145                       # Number of inst fetches per cycle
system.cpu.fetch.rateDist::samples             856115                       # Number of instructions fetched each cycle (Total)
system.cpu.fetch.rateDist::mean              1.215230                       # Number of instructions fetched each cycle (Total)
system.cpu.fetch.rateDist::stdev             1.201025                       # Number of instructions fetched each cycle (Total)
system.cpu.fetch.rateDist::underflows               0      0.00%      0.00% # Number of instructions fetched each cycle (Total)
system.cpu.fetch.rateDist::0                   336494     39.30%     39.30% # Number of instructions fetched each cycle (Total)
system.cpu.fetch.rateDist::1                   207525     24.24%     63.55% # Number of instructions fetched each cycle (Total)
system.cpu.fetch.rateDist::2                   103436     12.08%     75.63% # Number of instructions fetched each cycle (Total)
system.cpu.fetch.rateDist::3                   208660     24.37%    100.00% # Number of instructions fetched each cycle (Total)
system.cpu.fetch.rateDist::overflows                0      0.00%    100.00% # Number of instructions fetched each cycle (Total)
system.cpu.fetch.rateDist::min_value                0                       # Number of instructions fetched each cycle (Total)
system.cpu.fetch.rateDist::max_value                3                       # Number of instructions fetched each cycle (Total)
system.cpu.fetch.rateDist::total               856115                       # Number of instructions fetched each cycle (Total)
system.cpu.idleCycles                           21696                       # Total number of cycles that the CPU has spent unscheduled due to idling
system.cpu.iew.branchMispredicts                  625                       # Number of branch mispredicts detected at execute
system.cpu.iew.exec_branches                   103943                       # Number of branches executed
system.cpu.iew.exec_nop                            33                       # number of nop insts executed
system.cpu.iew.exec_rate                     1.175473                       # Inst execution rate
system.cpu.iew.exec_refs                       411619                       # number of memory reference insts executed
system.cpu.iew.exec_stores                     103494                       # Number of stores executed
system.cpu.iew.exec_swp                             0                       # number of swp insts executed
system.cpu.iew.iewBlockCycles                     205                       # Number of cycles IEW is blocking
system.cpu.iew.iewDispLoadInsts                308720                       # Number of dispatched load instructions
system.cpu.iew.iewDispNonSpecInsts                 29                       # Number of dispatched non-speculative instructions
system.cpu.iew.iewDispSquashedInsts                 0                       # Number of squashed instructions skipped by dispatch
system.cpu.iew.iewDispStoreInsts               103753                       # Number of dispatched store instructions
system.cpu.iew.iewDispatchedInsts             1034004                       # Number of instructions dispatched to IQ
system.cpu.iew.iewExecLoadInsts                308125                       # Number of load instructions executed
system.cpu.iew.iewExecSquashedInsts               760                       # Number of squashed instructions skipped in execute
system.cpu.iew.iewExecutedInsts               1031843                       # Number of executed instructions
system.cpu.iew.iewIQFullEvents                      0                       # Number of times the IQ has become full, causing a stall
system.cpu.iew.iewIdleCycles                        0                       # Number of cycles IEW is idle
system.cpu.iew.iewLSQFullEvents                 13806                       # Number of times the LSQ has become full, causing a stall
system.cpu.iew.iewSquashCycles                    616                       # Number of cycles IEW is squashing
system.cpu.iew.iewUnblockCycles                 15290                       # Number of cycles IEW is unblocking
system.cpu.iew.lsq.thread0.blockedLoads             0                       # Number of blocked loads due to partial load-store forwarding
system.cpu.iew.lsq.thread0.cacheBlocked             6                       # Number of times an access to memory failed due to the cache being blocked
system.cpu.iew.lsq.thread0.forwLoads               10                       # Number of loads that had data forwarded from stores
system.cpu.iew.lsq.thread0.ignoredResponses            0                       # Number of memory responses ignored because the instruction is squashed
system.cpu.iew.lsq.thread0.invAddrLoads             0                       # Number of loads ignored due to an invalid address
system.cpu.iew.lsq.thread0.invAddrSwpfs             0                       # Number of software prefetches ignored due to an invalid address
system.cpu.iew.lsq.thread0.memOrderViolation            3                       # Number of memory ordering violations
system.cpu.iew.lsq.thread0.rescheduledLoads            1                       # Number of loads that were rescheduled
system.cpu.iew.lsq.thread0.squashedLoads         1005                       # Number of loads squashed
system.cpu.iew.lsq.thread0.squashedStores          360                       # Number of stores squashed
system.cpu.iew.memOrderViolationEvents              3                       # Number of memory order violations
system.cpu.iew.predictedNotTakenIncorrect          521                       # Number of branches that were predicted not taken incorrectly
system.cpu.iew.predictedTakenIncorrect            104                       # Number of branches that were predicted taken incorrectly
system.cpu.iew.wb_consumers                   1629359                       # num instructions consuming a value
system.cpu.iew.wb_count                       1031602                       # cumulative count of insts written-back
system.cpu.iew.wb_fanout                     0.503689                       # average fanout of values written-back
system.cpu.iew.wb_producers                    820690                       # num instructions producing a value
system.cpu.iew.wb_rate                       1.175198                       # insts written-back per cycle
system.cpu.iew.wb_sent                        1031677                       # cumulative count of insts sent to commit
system.cpu.int_regfile_reads                  1134680                       # number of integer regfile reads
system.cpu.int_regfile_writes                  108194                       # number of integer regfile writes
system.cpu.ipc                               1.172289                       # IPC: Instructions Per Cycle
system.cpu.ipc_total                         1.172289                       # IPC: Total IPC of All Threads
system.cpu.iq.FU_type_0::No_OpClass                 2      0.00%      0.00% # Type of FU issued
system.cpu.iq.FU_type_0::IntAlu                108850     10.54%     10.54% # Type of FU issued
system.cpu.iq.FU_type_0::IntMult                    3      0.00%     10.54% # Type of FU issued
system.cpu.iq.FU_type_0::IntDiv                     2      0.00%     10.54% # Type of FU issued
system.cpu.iq.FU_type_0::FloatAdd                   0      0.00%     10.54% # Type of FU issued
system.cpu.iq.FU_type_0::FloatCmp                   0      0.00%     10.54% # Type of FU issued
system.cpu.iq.FU_type_0::FloatCvt                   0      0.00%     10.54% # Type of FU issued
system.cpu.iq.FU_type_0::FloatMult                  0      0.00%     10.54% # Type of FU issued
system.cpu.iq.FU_type_0::FloatMultAcc               0      0.00%     10.54% # Type of FU issued
system.cpu.iq.FU_type_0::FloatDiv                   0      0.00%     10.54% # Type of FU issued
system.cpu.iq.FU_type_0::FloatMisc                  0      0.00%     10.54% # Type of FU issued
system.cpu.iq.FU_type_0::FloatSqrt                  0      0.00%     10.54% # Type of FU issued
system.cpu.iq.FU_type_0::SimdAdd                   11      0.00%     10.54% # Type of FU issued
system.cpu.iq.FU_type_0::SimdAddAcc                 0      0.00%     10.54% # Type of FU issued
system.cpu.iq.FU_type_0::SimdAlu               102409      9.92%     20.46% # Type of FU issued
system.cpu.iq.FU_type_0::SimdCmp               102310      9.91%     30.37% # Type of FU issued
system.cpu.iq.FU_type_0::SimdCvt                    0      0.00%     30.37% # Type of FU issued
system.cpu.iq.FU_type_0::SimdMisc                   8      0.00%     30.37% # Type of FU issued
system.cpu.iq.FU_type_0::SimdMult                   0      0.00%     30.37% # Type of FU issued
system.cpu.iq.FU_type_0::SimdMultAcc                0      0.00%     30.37% # Type of FU issued
system.cpu.iq.FU_type_0::SimdShift                  0      0.00%     30.37% # Type of FU issued
system.cpu.iq.FU_type_0::SimdShiftAcc               0      0.00%     30.37% # Type of FU issued
system.cpu.iq.FU_type_0::SimdDiv                    0      0.00%     30.37% # Type of FU issued
system.cpu.iq.FU_type_0::SimdSqrt                   0      0.00%     30.37% # Type of FU issued
system.cpu.iq.FU_type_0::SimdFloatAdd          204600     19.81%     50.18% # Type of FU issued
system.cpu.iq.FU_type_0::SimdFloatAlu               1      0.00%     50.18% # Type of FU issued
system.cpu.iq.FU_type_0::SimdFloatCmp               0      0.00%     50.18% # Type of FU issued
system.cpu.iq.FU_type_0::SimdFloatCvt               0      0.00%     50.18% # Type of FU issued
system.cpu.iq.FU_type_0::SimdFloatDiv          102300      9.91%     60.09% # Type of FU issued
system.cpu.iq.FU_type_0::SimdFloatMisc              0      0.00%     60.09% # Type of FU issued
system.cpu.iq.FU_type_0::SimdFloatMult              0      0.00%     60.09% # Type of FU issued
system.cpu.iq.FU_type_0::SimdFloatMultAcc            0      0.00%     60.09% # Type of FU issued
system.cpu.iq.FU_type_0::SimdFloatSqrt              0      0.00%     60.09% # Type of FU issued
system.cpu.iq.FU_type_0::SimdReduceAdd              0      0.00%     60.09% # Type of FU issued
system.cpu.iq.FU_type_0::SimdReduceAlu              0      0.00%     60.09% # Type of FU issued
system.cpu.iq.FU_type_0::SimdReduceCmp              0      0.00%     60.09% # Type of FU issued
system.cpu.iq.FU_type_0::SimdFloatReduceAdd            0      0.00%     60.09% # Type of FU issued
system.cpu.iq.FU_type_0::SimdFloatReduceCmp            0      0.00%     60.09% # Type of FU issued
system.cpu.iq.FU_type_0::SimdAes                    0      0.00%     60.09% # Type of FU issued
system.cpu.iq.FU_type_0::SimdAesMix                 0      0.00%     60.09% # Type of FU issued
system.cpu.iq.FU_type_0::SimdSha1Hash               0      0.00%     60.09% # Type of FU issued
system.cpu.iq.FU_type_0::SimdSha1Hash2              0      0.00%     60.09% # Type of FU issued
system.cpu.iq.FU_type_0::SimdSha256Hash             0      0.00%     60.09% # Type of FU issued
system.cpu.iq.FU_type_0::SimdSha256Hash2            0      0.00%     60.09% # Type of FU issued
system.cpu.iq.FU_type_0::SimdShaSigma2              0      0.00%     60.09% # Type of FU issued
system.cpu.iq.FU_type_0::SimdShaSigma3              0      0.00%     60.09% # Type of FU issued
system.cpu.iq.FU_type_0::SimdPredAlu              102      0.01%     60.10% # Type of FU issued
system.cpu.iq.FU_type_0::MemRead               308463     29.87%     89.97% # Type of FU issued
system.cpu.iq.FU_type_0::MemWrite              103542     10.03%    100.00% # Type of FU issued
system.cpu.iq.FU_type_0::FloatMemRead               0      0.00%    100.00% # Type of FU issued
system.cpu.iq.FU_type_0::FloatMemWrite              0      0.00%    100.00% # Type of FU issued
system.cpu.iq.FU_type_0::IprAccess                  0      0.00%    100.00% # Type of FU issued
system.cpu.iq.FU_type_0::InstPrefetch               0      0.00%    100.00% # Type of FU issued
system.cpu.iq.FU_type_0::total                1032603                       # Type of FU issued
system.cpu.iq.fp_alu_accesses                       0                       # Number of floating point alu accesses
system.cpu.iq.fp_inst_queue_reads                   0                       # Number of floating instruction queue reads
system.cpu.iq.fp_inst_queue_wakeup_accesses            0                       # Number of floating instruction queue wakeup accesses
system.cpu.iq.fp_inst_queue_writes                  0                       # Number of floating instruction queue writes
system.cpu.iq.fu_busy_cnt                      208393                       # FU busy when requested
system.cpu.iq.fu_busy_rate                   0.201813                       # FU busy rate (busy events/executed inst)
system.cpu.iq.fu_full::No_OpClass                   0      0.00%      0.00% # attempts to use FU when none available
system.cpu.iq.fu_full::IntAlu                     452      0.22%      0.22% # attempts to use FU when none available
system.cpu.iq.fu_full::IntMult                      0      0.00%      0.22% # attempts to use FU when none available
system.cpu.iq.fu_full::IntDiv                       0      0.00%      0.22% # attempts to use FU when none available
system.cpu.iq.fu_full::FloatAdd                     0      0.00%      0.22% # attempts to use FU when none available
system.cpu.iq.fu_full::FloatCmp                     0      0.00%      0.22% # attempts to use FU when none available
system.cpu.iq.fu_full::FloatCvt                     0      0.00%      0.22% # attempts to use FU when none available
system.cpu.iq.fu_full::FloatMult                    0      0.00%      0.22% # attempts to use FU when none available
system.cpu.iq.fu_full::FloatMultAcc                 0      0.00%      0.22% # attempts to use FU when none available
system.cpu.iq.fu_full::FloatDiv                     0      0.00%      0.22% # attempts to use FU when none available
system.cpu.iq.fu_full::FloatMisc                    0      0.00%      0.22% # attempts to use FU when none available
system.cpu.iq.fu_full::FloatSqrt                    0      0.00%      0.22% # attempts to use FU when none available
system.cpu.iq.fu_full::SimdAdd                      0      0.00%      0.22% # attempts to use FU when none available
system.cpu.iq.fu_full::SimdAddAcc                   0      0.00%      0.22% # attempts to use FU when none available
system.cpu.iq.fu_full::SimdAlu                   8046      3.86%      4.08% # attempts to use FU when none available
system.cpu.iq.fu_full::SimdCmp                   4965      2.38%      6.46% # attempts to use FU when none available
system.cpu.iq.fu_full::SimdCvt                      0      0.00%      6.46% # attempts to use FU when none available
system.cpu.iq.fu_full::SimdMisc                     0      0.00%      6.46% # attempts to use FU when none available
system.cpu.iq.fu_full::SimdMult                     0      0.00%      6.46% # attempts to use FU when none available
system.cpu.iq.fu_full::SimdMultAcc                  0      0.00%      6.46% # attempts to use FU when none available
system.cpu.iq.fu_full::SimdShift                    0      0.00%      6.46% # attempts to use FU when none available
system.cpu.iq.fu_full::SimdShiftAcc                 0      0.00%      6.46% # attempts to use FU when none available
system.cpu.iq.fu_full::SimdDiv                      0      0.00%      6.46% # attempts to use FU when none available
system.cpu.iq.fu_full::SimdSqrt                     0      0.00%      6.46% # attempts to use FU when none available
system.cpu.iq.fu_full::SimdFloatAdd              1685      0.81%      7.27% # attempts to use FU when none available
system.cpu.iq.fu_full::SimdFloatAlu                 0      0.00%      7.27% # attempts to use FU when none available
system.cpu.iq.fu_full::SimdFloatCmp                 0      0.00%      7.27% # attempts to use FU when none available
system.cpu.iq.fu_full::SimdFloatCvt                 0      0.00%      7.27% # attempts to use FU when none available
system.cpu.iq.fu_full::SimdFloatDiv                 0      0.00%      7.27% # attempts to use FU when none available
system.cpu.iq.fu_full::SimdFloatMisc                0      0.00%      7.27% # attempts to use FU when none available
system.cpu.iq.fu_full::SimdFloatMult                0      0.00%      7.27% # attempts to use FU when none available
system.cpu.iq.fu_full::SimdFloatMultAcc             0      0.00%      7.27% # attempts to use FU when none available
system.cpu.iq.fu_full::SimdFloatSqrt                0      0.00%      7.27% # attempts to use FU when none available
system.cpu.iq.fu_full::SimdReduceAdd                0      0.00%      7.27% # attempts to use FU when none available
system.cpu.iq.fu_full::SimdReduceAlu                0      0.00%      7.27% # attempts to use FU when none available
system.cpu.iq.fu_full::SimdReduceCmp                0      0.00%      7.27% # attempts to use FU when none available
system.cpu.iq.fu_full::SimdFloatReduceAdd            0      0.00%      7.27% # attempts to use FU when none available
system.cpu.iq.fu_full::SimdFloatReduceCmp            0      0.00%      7.27% # attempts to use FU when none available
system.cpu.iq.fu_full::SimdAes                      0      0.00%      7.27% # attempts to use FU when none available
system.cpu.iq.fu_full::SimdAesMix                   0      0.00%      7.27% # attempts to use FU when none available
system.cpu.iq.fu_full::SimdSha1Hash                 0      0.00%      7.27% # attempts to use FU when none available
system.cpu.iq.fu_full::SimdSha1Hash2                0      0.00%      7.27% # attempts to use FU when none available
system.cpu.iq.fu_full::SimdSha256Hash               0      0.00%      7.27% # attempts to use FU when none available
system.cpu.iq.fu_full::SimdSha256Hash2              0      0.00%      7.27% # attempts to use FU when none available
system.cpu.iq.fu_full::SimdShaSigma2                0      0.00%      7.27% # attempts to use FU when none available
system.cpu.iq.fu_full::SimdShaSigma3                0      0.00%      7.27% # attempts to use FU when none available
system.cpu.iq.fu_full::SimdPredAlu                  0      0.00%      7.27% # attempts to use FU when none available
system.cpu.iq.fu_full::MemRead                 192585     92.41%     99.68% # attempts to use FU when none available
system.cpu.iq.fu_full::MemWrite                   660      0.32%    100.00% # attempts to use FU when none available
system.cpu.iq.fu_full::FloatMemRead                 0      0.00%    100.00% # attempts to use FU when none available
system.cpu.iq.fu_full::FloatMemWrite                0      0.00%    100.00% # attempts to use FU when none available
system.cpu.iq.fu_full::IprAccess                    0      0.00%    100.00% # attempts to use FU when none available
system.cpu.iq.fu_full::InstPrefetch                 0      0.00%    100.00% # attempts to use FU when none available
system.cpu.iq.int_alu_accesses                 330314                       # Number of integer alu accesses
system.cpu.iq.int_inst_queue_reads            1502635                       # Number of integer instruction queue reads
system.cpu.iq.int_inst_queue_wakeup_accesses       315320                       # Number of integer instruction queue wakeup accesses
system.cpu.iq.int_inst_queue_writes            319811                       # Number of integer instruction queue writes
system.cpu.iq.iqInstsAdded                    1033942                       # Number of instructions added to the IQ (excludes non-spec)
system.cpu.iq.iqInstsIssued                   1032603                       # Number of instructions issued
system.cpu.iq.iqNonSpecInstsAdded                  29                       # Number of non-speculative instructions added to the IQ
system.cpu.iq.iqSquashedInstsExamined            3847                       # Number of squashed instructions iterated over during squash; mainly for profiling
system.cpu.iq.iqSquashedInstsIssued                85                       # Number of squashed instructions issued
system.cpu.iq.iqSquashedNonSpecRemoved              7                       # Number of squashed non-spec instructions that were removed
system.cpu.iq.iqSquashedOperandsExamined         6343                       # Number of squashed operands that are examined and possibly removed from graph
system.cpu.iq.issued_per_cycle::samples        856115                       # Number of insts issued each cycle
system.cpu.iq.issued_per_cycle::mean         1.206150                       # Number of insts issued each cycle
system.cpu.iq.issued_per_cycle::stdev        1.036192                       # Number of insts issued each cycle
system.cpu.iq.issued_per_cycle::underflows            0      0.00%      0.00% # Number of insts issued each cycle
system.cpu.iq.issued_per_cycle::0              253029     29.56%     29.56% # Number of insts issued each cycle
system.cpu.iq.issued_per_cycle::1              289273     33.79%     63.34% # Number of insts issued each cycle
system.cpu.iq.issued_per_cycle::2              217639     25.42%     88.77% # Number of insts issued each cycle
system.cpu.iq.issued_per_cycle::3               77931      9.10%     97.87% # Number of insts issued each cycle
system.cpu.iq.issued_per_cycle::4               16956      1.98%     99.85% # Number of insts issued each cycle
system.cpu.iq.issued_per_cycle::5                1287      0.15%    100.00% # Number of insts issued each cycle
system.cpu.iq.issued_per_cycle::6                   0      0.00%    100.00% # Number of insts issued each cycle
system.cpu.iq.issued_per_cycle::7                   0      0.00%    100.00% # Number of insts issued each cycle
system.cpu.iq.issued_per_cycle::8                   0      0.00%    100.00% # Number of insts issued each cycle
system.cpu.iq.issued_per_cycle::overflows            0      0.00%    100.00% # Number of insts issued each cycle
system.cpu.iq.issued_per_cycle::min_value            0                       # Number of insts issued each cycle
system.cpu.iq.issued_per_cycle::max_value            5                       # Number of insts issued each cycle
system.cpu.iq.issued_per_cycle::total          856115                       # Number of insts issued each cycle
system.cpu.iq.rate                           1.176339                       # Inst issue rate
system.cpu.iq.vec_alu_accesses                 910680                       # Number of vector alu accesses
system.cpu.iq.vec_inst_queue_reads            1627164                       # Number of vector instruction queue reads
system.cpu.iq.vec_inst_queue_wakeup_accesses       716282                       # Number of vector instruction queue wakeup accesses
system.cpu.iq.vec_inst_queue_writes            718010                       # Number of vector instruction queue writes
system.cpu.itb.accesses                             0                       # DTB accesses
system.cpu.itb.align_faults                         0                       # Number of TLB faults due to alignment restrictions
system.cpu.itb.domain_faults                        0                       # Number of TLB faults due to domain restrictions
system.cpu.itb.flush_entries                        0                       # Number of entries that have been flushed from TLB
system.cpu.itb.flush_tlb                            0                       # Number of times complete TLB was flushed
system.cpu.itb.flush_tlb_asid                       0                       # Number of times TLB was flushed by ASID
system.cpu.itb.flush_tlb_mva                        0                       # Number of times TLB was flushed by MVA
system.cpu.itb.flush_tlb_mva_asid                   0                       # Number of times TLB was flushed by MVA & ASID
system.cpu.itb.hits                                 0                       # DTB hits
system.cpu.itb.inst_accesses                        0                       # ITB inst accesses
system.cpu.itb.inst_hits                            0                       # ITB inst hits
system.cpu.itb.inst_misses                          0                       # ITB inst misses
system.cpu.itb.misses                               0                       # DTB misses
system.cpu.itb.perms_faults                         0                       # Number of TLB faults due to permissions restrictions
system.cpu.itb.prefetch_faults                      0                       # Number of TLB faults due to prefetch
system.cpu.itb.read_accesses                        0                       # DTB read accesses
system.cpu.itb.read_hits                            0                       # DTB read hits
system.cpu.itb.read_misses                          0                       # DTB read misses
system.cpu.itb.stage2_mmu.stage2_tlb.accesses            0                       # DTB accesses
system.cpu.itb.stage2_mmu.stage2_tlb.align_faults            0                       # Number of TLB faults due to alignment restrictions
system.cpu.itb.stage2_mmu.stage2_tlb.domain_faults            0                       # Number of TLB faults due to domain restrictions
system.cpu.itb.stage2_mmu.stage2_tlb.flush_entries            0                       # Number of entries that have been flushed from TLB
system.cpu.itb.stage2_mmu.stage2_tlb.flush_tlb            0                       # Number of times complete TLB was flushed
system.cpu.itb.stage2_mmu.stage2_tlb.flush_tlb_asid            0                       # Number of times TLB was flushed by ASID
system.cpu.itb.stage2_mmu.stage2_tlb.flush_tlb_mva            0                       # Number of times TLB was flushed by MVA
system.cpu.itb.stage2_mmu.stage2_tlb.flush_tlb_mva_asid            0                       # Number of times TLB was flushed by MVA & ASID
system.cpu.itb.stage2_mmu.stage2_tlb.hits            0                       # DTB hits
system.cpu.itb.stage2_mmu.stage2_tlb.inst_accesses            0                       # ITB inst accesses
system.cpu.itb.stage2_mmu.stage2_tlb.inst_hits            0                       # ITB inst hits
system.cpu.itb.stage2_mmu.stage2_tlb.inst_misses            0                       # ITB inst misses
system.cpu.itb.stage2_mmu.stage2_tlb.misses            0                       # DTB misses
system.cpu.itb.stage2_mmu.stage2_tlb.perms_faults            0                       # Number of TLB faults due to permissions restrictions
system.cpu.itb.stage2_mmu.stage2_tlb.prefetch_faults            0                       # Number of TLB faults due to prefetch
system.cpu.itb.stage2_mmu.stage2_tlb.read_accesses            0                       # DTB read accesses
system.cpu.itb.stage2_mmu.stage2_tlb.read_hits            0                       # DTB read hits
system.cpu.itb.stage2_mmu.stage2_tlb.read_misses            0                       # DTB read misses
system.cpu.itb.stage2_mmu.stage2_tlb.walker.walkRequestOrigin_Requested::Data            0                       # Table walker requests started/completed, data/inst
system.cpu.itb.stage2_mmu.stage2_tlb.walker.walkRequestOrigin_Requested::Inst            0                       # Table walker requests started/completed, data/inst
system.cpu.itb.stage2_mmu.stage2_tlb.walker.walkRequestOrigin_Requested::total            0                       # Table walker requests started/completed, data/inst
system.cpu.itb.stage2_mmu.stage2_tlb.walker.walkRequestOrigin_Completed::Data            0                       # Table walker requests started/completed, data/inst
system.cpu.itb.stage2_mmu.stage2_tlb.walker.walkRequestOrigin_Completed::Inst            0                       # Table walker requests started/completed, data/inst
system.cpu.itb.stage2_mmu.stage2_tlb.walker.walkRequestOrigin_Completed::total            0                       # Table walker requests started/completed, data/inst
system.cpu.itb.stage2_mmu.stage2_tlb.walker.walkRequestOrigin::total            0                       # Table walker requests started/completed, data/inst
system.cpu.itb.stage2_mmu.stage2_tlb.walker.walks            0                       # Table walker walks requested
system.cpu.itb.stage2_mmu.stage2_tlb.write_accesses            0                       # DTB write accesses
system.cpu.itb.stage2_mmu.stage2_tlb.write_hits            0                       # DTB write hits
system.cpu.itb.stage2_mmu.stage2_tlb.write_misses            0                       # DTB write misses
system.cpu.itb.walker.walkRequestOrigin_Requested::Data            0                       # Table walker requests started/completed, data/inst
system.cpu.itb.walker.walkRequestOrigin_Requested::Inst            0                       # Table walker requests started/completed, data/inst
system.cpu.itb.walker.walkRequestOrigin_Requested::total            0                       # Table walker requests started/completed, data/inst
system.cpu.itb.walker.walkRequestOrigin_Completed::Data            0                       # Table walker requests started/completed, data/inst
system.cpu.itb.walker.walkRequestOrigin_Completed::Inst            0                       # Table walker requests started/completed, data/inst
system.cpu.itb.walker.walkRequestOrigin_Completed::total            0                       # Table walker requests started/completed, data/inst
system.cpu.itb.walker.walkRequestOrigin::total            0                       # Table walker requests started/completed, data/inst
system.cpu.itb.walker.walks                         0                       # Table walker walks requested
system.cpu.itb.write_accesses                       0                       # DTB write accesses
system.cpu.itb.write_hits                           0                       # DTB write hits
system.cpu.itb.write_misses                         0                       # DTB write misses
system.cpu.memDep0.conflictingLoads                 0                       # Number of conflicting loads.
system.cpu.memDep0.conflictingStores                0                       # Number of conflicting stores.
system.cpu.memDep0.insertedLoads               308720                       # Number of loads inserted to the mem dependence unit.
system.cpu.memDep0.insertedStores              103753                       # Number of stores inserted to the mem dependence unit.
system.cpu.misc_regfile_reads                 3212977                       # number of misc regfile reads
system.cpu.misc_regfile_writes                 306957                       # number of misc regfile writes
system.cpu.numCycles                           877811                       # number of cpu cycles simulated
system.cpu.numWorkItemsCompleted                    0                       # number of work items this cpu completed
system.cpu.numWorkItemsStarted                      0                       # number of work items this cpu started
system.cpu.pred_regfile_reads                  818903                       # number of predicate regfile reads
system.cpu.pred_regfile_writes                 102403                       # number of predicate regfile writes
system.cpu.rename.BlockCycles                   16200                       # Number of cycles rename is blocking
system.cpu.rename.CommittedMaps               1439331                       # Number of HB maps that are committed
system.cpu.rename.IdleCycles                   238836                       # Number of cycles rename is idle
system.cpu.rename.LQFullEvents                 245199                       # Number of times rename has blocked due to LQ full
system.cpu.rename.ROBFullEvents                 69632                       # Number of times rename has blocked due to ROB full
system.cpu.rename.RenameLookups               4828687                       # Number of register rename lookups that rename has made
system.cpu.rename.RenamedInsts                1034458                       # Number of instructions processed by rename
system.cpu.rename.RenamedOperands             1444004                       # Number of destination operands rename has renamed
system.cpu.rename.RunCycles                    249179                       # Number of cycles rename is running
system.cpu.rename.SQFullEvents                   1460                       # Number of times rename has blocked due to SQ full
system.cpu.rename.SquashCycles                    616                       # Number of cycles rename is squashing
system.cpu.rename.SquashedInsts                   712                       # Number of squashed instructions processed by rename
system.cpu.rename.UnblockCycles                349582                       # Number of cycles rename is unblocking
system.cpu.rename.UndoneMaps                     4673                       # Number of HB maps that are undone due to squashing
system.cpu.rename.int_rename_lookups          1137575                       # Number of integer rename lookups
system.cpu.rename.serializeStallCycles           1702                       # count of cycles rename stalled for serializing inst
system.cpu.rename.serializingInsts                 59                       # count of serializing insts renamed
system.cpu.rename.skidInsts                    428309                       # count of insts added to the skid buffer
system.cpu.rename.tempSerializingInsts             29                       # count of temporary serializing insts renamed
system.cpu.rename.vec_pred_rename_lookups       512507                       # Number of vector predicate rename lookups
system.cpu.rename.vec_rename_lookups           716933                       # Number of vector rename lookups
system.cpu.rob.rob_reads                      1786224                       # The number of ROB reads
system.cpu.rob.rob_writes                     2067358                       # The number of ROB writes
system.cpu.timesIdled                             267                       # Number of times that the entire CPU went into an idle state and unscheduled itself
system.cpu.vec_regfile_reads                   716201                       # number of vector regfile reads
system.cpu.vec_regfile_writes                  613939                       # number of vector regfile writes
system.cpu.workload.numSyscalls                     7                       # Number of system calls
system.membus.snoop_filter.hit_multi_requests            0                       # Number of requests hitting in the snoop filter with multiple (>1) holders of the requested data.
system.membus.snoop_filter.hit_multi_snoops            0                       # Number of snoops hitting in the snoop filter with multiple (>1) holders of the requested data.
system.membus.snoop_filter.hit_single_requests           47                       # Number of requests hitting in the snoop filter with a single holder of the requested data.
system.membus.snoop_filter.hit_single_snoops            0                       # Number of snoops hitting in the snoop filter with a single holder of the requested data.
system.membus.snoop_filter.tot_requests           813                       # Total number of requests made to the snoop filter.
system.membus.snoop_filter.tot_snoops               0                       # Total number of snoops made to the snoop filter.
system.membus.pwrStateResidencyTicks::UNDEFINED    438905000                       # Cumulative time (in ticks) in various power states
system.membus.trans_dist::ReadResp                674                       # Transaction distribution
system.membus.trans_dist::WritebackDirty            1                       # Transaction distribution
system.membus.trans_dist::WritebackClean           41                       # Transaction distribution
system.membus.trans_dist::CleanEvict                3                       # Transaction distribution
system.membus.trans_dist::ReadExReq                85                       # Transaction distribution
system.membus.trans_dist::ReadExResp               85                       # Transaction distribution
system.membus.trans_dist::ReadCleanReq            329                       # Transaction distribution
system.membus.trans_dist::ReadSharedReq           346                       # Transaction distribution
system.membus.trans_dist::InvalidateReq             8                       # Transaction distribution
system.membus.pkt_count_system.cpu.icache.mem_side::system.mem_ctrls.port          698                       # Packet count per connected master and slave (bytes)
system.membus.pkt_count_system.cpu.dcache.mem_side::system.mem_ctrls.port          874                       # Packet count per connected master and slave (bytes)
system.membus.pkt_count::total                   1572                       # Packet count per connected master and slave (bytes)
system.membus.pkt_size_system.cpu.icache.mem_side::system.mem_ctrls.port        23616                       # Cumulative packet size per connected master and slave (bytes)
system.membus.pkt_size_system.cpu.dcache.mem_side::system.mem_ctrls.port        27648                       # Cumulative packet size per connected master and slave (bytes)
system.membus.pkt_size::total                   51264                       # Cumulative packet size per connected master and slave (bytes)
system.membus.snoops                                0                       # Total snoops (count)
system.membus.snoopTraffic                          0                       # Total snoop traffic (bytes)
system.membus.snoop_fanout::samples               768                       # Request fanout histogram
system.membus.snoop_fanout::mean             0.002604                       # Request fanout histogram
system.membus.snoop_fanout::stdev            0.050998                       # Request fanout histogram
system.membus.snoop_fanout::underflows              0      0.00%      0.00% # Request fanout histogram
system.membus.snoop_fanout::0                     766     99.74%     99.74% # Request fanout histogram
system.membus.snoop_fanout::1                       2      0.26%    100.00% # Request fanout histogram
system.membus.snoop_fanout::2                       0      0.00%    100.00% # Request fanout histogram
system.membus.snoop_fanout::overflows               0      0.00%    100.00% # Request fanout histogram
system.membus.snoop_fanout::min_value               0                       # Request fanout histogram
system.membus.snoop_fanout::max_value               1                       # Request fanout histogram
system.membus.snoop_fanout::total                 768                       # Request fanout histogram
system.membus.reqLayer0.occupancy             1163000                       # Layer occupancy (ticks)
system.membus.reqLayer0.utilization               0.3                       # Layer utilization (%)
system.membus.respLayer1.occupancy            1748750                       # Layer occupancy (ticks)
system.membus.respLayer1.utilization              0.4                       # Layer utilization (%)
system.membus.respLayer2.occupancy            2274000                       # Layer occupancy (ticks)
system.membus.respLayer2.utilization              0.5                       # Layer utilization (%)
system.voltage_domain.voltage                       1                       # Voltage in Volts
system.clk_domain.clock                          1000                       # Clock period in ticks
system.cpu_voltage_domain.voltage                   1                       # Voltage in Volts
system.mem_ctrls.pwrStateResidencyTicks::UNDEFINED    438905000                       # Cumulative time (in ticks) in various power states
system.mem_ctrls.bytes_read::.cpu.inst          20992                       # Number of bytes read from this memory
system.mem_ctrls.bytes_read::.cpu.data          27584                       # Number of bytes read from this memory
system.mem_ctrls.bytes_read::total              48576                       # Number of bytes read from this memory
system.mem_ctrls.bytes_inst_read::.cpu.inst        20992                       # Number of instructions bytes read from this memory
system.mem_ctrls.bytes_inst_read::total         20992                       # Number of instructions bytes read from this memory
system.mem_ctrls.bytes_written::.writebacks           64                       # Number of bytes written to this memory
system.mem_ctrls.bytes_written::total              64                       # Number of bytes written to this memory
system.mem_ctrls.num_reads::.cpu.inst             328                       # Number of read requests responded to by this memory
system.mem_ctrls.num_reads::.cpu.data             431                       # Number of read requests responded to by this memory
system.mem_ctrls.num_reads::total                 759                       # Number of read requests responded to by this memory
system.mem_ctrls.num_writes::.writebacks            1                       # Number of write requests responded to by this memory
system.mem_ctrls.num_writes::total                  1                       # Number of write requests responded to by this memory
system.mem_ctrls.bw_read::.cpu.inst          47828118                       # Total read bandwidth from this memory (bytes/s)
system.mem_ctrls.bw_read::.cpu.data          62847313                       # Total read bandwidth from this memory (bytes/s)
system.mem_ctrls.bw_read::total             110675431                       # Total read bandwidth from this memory (bytes/s)
system.mem_ctrls.bw_inst_read::.cpu.inst     47828118                       # Instruction read bandwidth from this memory (bytes/s)
system.mem_ctrls.bw_inst_read::total         47828118                       # Instruction read bandwidth from this memory (bytes/s)
system.mem_ctrls.bw_write::.writebacks         145817                       # Write bandwidth from this memory (bytes/s)
system.mem_ctrls.bw_write::total               145817                       # Write bandwidth from this memory (bytes/s)
system.mem_ctrls.bw_total::.writebacks         145817                       # Total bandwidth to/from this memory (bytes/s)
system.mem_ctrls.bw_total::.cpu.inst         47828118                       # Total bandwidth to/from this memory (bytes/s)
system.mem_ctrls.bw_total::.cpu.data         62847313                       # Total bandwidth to/from this memory (bytes/s)
system.mem_ctrls.bw_total::total            110821248                       # Total bandwidth to/from this memory (bytes/s)
system.mem_ctrls.avgPriority_.writebacks::samples        42.00                       # Average QoS priority value for accepted requests
system.mem_ctrls.avgPriority_.cpu.inst::samples       327.00                       # Average QoS priority value for accepted requests
system.mem_ctrls.avgPriority_.cpu.data::samples       431.00                       # Average QoS priority value for accepted requests
system.mem_ctrls.priorityMinLatency      0.000000018750                       # per QoS priority minimum request to response latency (s)
system.mem_ctrls.priorityMaxLatency      0.000863415250                       # per QoS priority maximum request to response latency (s)
system.mem_ctrls.numReadWriteTurnArounds            1                       # Number of turnarounds from READ to WRITE
system.mem_ctrls.numWriteReadTurnArounds            1                       # Number of turnarounds from WRITE to READ
system.mem_ctrls.numStayReadState                1644                       # Number of times bus staying in READ state
system.mem_ctrls.numStayWriteState                 16                       # Number of times bus staying in WRITE state
system.mem_ctrls.readReqs                         760                       # Number of read requests accepted
system.mem_ctrls.writeReqs                         42                       # Number of write requests accepted
system.mem_ctrls.readBursts                       760                       # Number of DRAM read bursts, including those serviced by the write queue
system.mem_ctrls.writeBursts                       42                       # Number of DRAM write bursts, including those merged in the write queue
system.mem_ctrls.servicedByWrQ                      2                       # Number of DRAM read bursts serviced by the write queue
system.mem_ctrls.mergedWrBursts                     0                       # Number of DRAM write bursts merged with an existing one
system.mem_ctrls.neitherReadNorWriteReqs            0                       # Number of requests that are neither read nor write
system.mem_ctrls.perBankRdBursts::0                65                       # Per bank write bursts
system.mem_ctrls.perBankRdBursts::1                 3                       # Per bank write bursts
system.mem_ctrls.perBankRdBursts::2                27                       # Per bank write bursts
system.mem_ctrls.perBankRdBursts::3                 0                       # Per bank write bursts
system.mem_ctrls.perBankRdBursts::4                 6                       # Per bank write bursts
system.mem_ctrls.perBankRdBursts::5                 1                       # Per bank write bursts
system.mem_ctrls.perBankRdBursts::6                27                       # Per bank write bursts
system.mem_ctrls.perBankRdBursts::7                21                       # Per bank write bursts
system.mem_ctrls.perBankRdBursts::8                66                       # Per bank write bursts
system.mem_ctrls.perBankRdBursts::9                31                       # Per bank write bursts
system.mem_ctrls.perBankRdBursts::10               43                       # Per bank write bursts
system.mem_ctrls.perBankRdBursts::11               81                       # Per bank write bursts
system.mem_ctrls.perBankRdBursts::12               48                       # Per bank write bursts
system.mem_ctrls.perBankRdBursts::13               79                       # Per bank write bursts
system.mem_ctrls.perBankRdBursts::14              129                       # Per bank write bursts
system.mem_ctrls.perBankRdBursts::15              131                       # Per bank write bursts
system.mem_ctrls.perBankWrBursts::0                 0                       # Per bank write bursts
system.mem_ctrls.perBankWrBursts::1                 0                       # Per bank write bursts
system.mem_ctrls.perBankWrBursts::2                 0                       # Per bank write bursts
system.mem_ctrls.perBankWrBursts::3                 0                       # Per bank write bursts
system.mem_ctrls.perBankWrBursts::4                 0                       # Per bank write bursts
system.mem_ctrls.perBankWrBursts::5                 0                       # Per bank write bursts
system.mem_ctrls.perBankWrBursts::6                 0                       # Per bank write bursts
system.mem_ctrls.perBankWrBursts::7                 0                       # Per bank write bursts
system.mem_ctrls.perBankWrBursts::8                 1                       # Per bank write bursts
system.mem_ctrls.perBankWrBursts::9                 1                       # Per bank write bursts
system.mem_ctrls.perBankWrBursts::10                9                       # Per bank write bursts
system.mem_ctrls.perBankWrBursts::11                1                       # Per bank write bursts
system.mem_ctrls.perBankWrBursts::12                0                       # Per bank write bursts
system.mem_ctrls.perBankWrBursts::13                4                       # Per bank write bursts
system.mem_ctrls.perBankWrBursts::14                1                       # Per bank write bursts
system.mem_ctrls.perBankWrBursts::15                0                       # Per bank write bursts
system.mem_ctrls.avgRdQLen                       1.98                       # Average read queue length when enqueuing
system.mem_ctrls.avgWrQLen                      16.54                       # Average write queue length when enqueuing
system.mem_ctrls.totQLat                      5654750                       # Total ticks spent queuing
system.mem_ctrls.totBusLat                    3790000                       # Total ticks spent in databus transfers
system.mem_ctrls.totMemAccLat                19867250                       # Total ticks spent from burst creation until serviced by the DRAM
system.mem_ctrls.avgQLat                      7460.09                       # Average queueing delay per DRAM burst
system.mem_ctrls.avgBusLat                    5000.00                       # Average bus latency per DRAM burst
system.mem_ctrls.avgMemAccLat                26210.09                       # Average memory access latency per DRAM burst
system.mem_ctrls.numRdRetry                         0                       # Number of times read queue was full causing retry
system.mem_ctrls.numWrRetry                         0                       # Number of times write queue was full causing retry
system.mem_ctrls.readRowHits                      640                       # Number of row buffer hits during reads
system.mem_ctrls.writeRowHits                      14                       # Number of row buffer hits during writes
system.mem_ctrls.readRowHitRate                 84.43                       # Row buffer hit rate for reads
system.mem_ctrls.writeRowHitRate                33.33                       # Row buffer hit rate for writes
system.mem_ctrls.readPktSize::0                     0                       # Read request sizes (log2)
system.mem_ctrls.readPktSize::1                     0                       # Read request sizes (log2)
system.mem_ctrls.readPktSize::2                     0                       # Read request sizes (log2)
system.mem_ctrls.readPktSize::3                     0                       # Read request sizes (log2)
system.mem_ctrls.readPktSize::4                     0                       # Read request sizes (log2)
system.mem_ctrls.readPktSize::5                     0                       # Read request sizes (log2)
system.mem_ctrls.readPktSize::6                   760                       # Read request sizes (log2)
system.mem_ctrls.writePktSize::0                    0                       # Write request sizes (log2)
system.mem_ctrls.writePktSize::1                    0                       # Write request sizes (log2)
system.mem_ctrls.writePktSize::2                    0                       # Write request sizes (log2)
system.mem_ctrls.writePktSize::3                    0                       # Write request sizes (log2)
system.mem_ctrls.writePktSize::4                    0                       # Write request sizes (log2)
system.mem_ctrls.writePktSize::5                    0                       # Write request sizes (log2)
system.mem_ctrls.writePktSize::6                   42                       # Write request sizes (log2)
system.mem_ctrls.rdQLenPdf::0                     432                       # What read queue length does an incoming req see
system.mem_ctrls.rdQLenPdf::1                     254                       # What read queue length does an incoming req see
system.mem_ctrls.rdQLenPdf::2                      56                       # What read queue length does an incoming req see
system.mem_ctrls.rdQLenPdf::3                      16                       # What read queue length does an incoming req see
system.mem_ctrls.rdQLenPdf::4                       0                       # What read queue length does an incoming req see
system.mem_ctrls.rdQLenPdf::5                       0                       # What read queue length does an incoming req see
system.mem_ctrls.rdQLenPdf::6                       0                       # What read queue length does an incoming req see
system.mem_ctrls.rdQLenPdf::7                       0                       # What read queue length does an incoming req see
system.mem_ctrls.rdQLenPdf::8                       0                       # What read queue length does an incoming req see
system.mem_ctrls.rdQLenPdf::9                       0                       # What read queue length does an incoming req see
system.mem_ctrls.rdQLenPdf::10                      0                       # What read queue length does an incoming req see
system.mem_ctrls.rdQLenPdf::11                      0                       # What read queue length does an incoming req see
system.mem_ctrls.rdQLenPdf::12                      0                       # What read queue length does an incoming req see
system.mem_ctrls.rdQLenPdf::13                      0                       # What read queue length does an incoming req see
system.mem_ctrls.rdQLenPdf::14                      0                       # What read queue length does an incoming req see
system.mem_ctrls.rdQLenPdf::15                      0                       # What read queue length does an incoming req see
system.mem_ctrls.rdQLenPdf::16                      0                       # What read queue length does an incoming req see
system.mem_ctrls.rdQLenPdf::17                      0                       # What read queue length does an incoming req see
system.mem_ctrls.rdQLenPdf::18                      0                       # What read queue length does an incoming req see
system.mem_ctrls.rdQLenPdf::19                      0                       # What read queue length does an incoming req see
system.mem_ctrls.rdQLenPdf::20                      0                       # What read queue length does an incoming req see
system.mem_ctrls.rdQLenPdf::21                      0                       # What read queue length does an incoming req see
system.mem_ctrls.rdQLenPdf::22                      0                       # What read queue length does an incoming req see
system.mem_ctrls.rdQLenPdf::23                      0                       # What read queue length does an incoming req see
system.mem_ctrls.rdQLenPdf::24                      0                       # What read queue length does an incoming req see
system.mem_ctrls.rdQLenPdf::25                      0                       # What read queue length does an incoming req see
system.mem_ctrls.rdQLenPdf::26                      0                       # What read queue length does an incoming req see
system.mem_ctrls.rdQLenPdf::27                      0                       # What read queue length does an incoming req see
system.mem_ctrls.rdQLenPdf::28                      0                       # What read queue length does an incoming req see
system.mem_ctrls.rdQLenPdf::29                      0                       # What read queue length does an incoming req see
system.mem_ctrls.rdQLenPdf::30                      0                       # What read queue length does an incoming req see
system.mem_ctrls.rdQLenPdf::31                      0                       # What read queue length does an incoming req see
system.mem_ctrls.wrQLenPdf::0                       1                       # What write queue length does an incoming req see
system.mem_ctrls.wrQLenPdf::1                       1                       # What write queue length does an incoming req see
system.mem_ctrls.wrQLenPdf::2                       1                       # What write queue length does an incoming req see
system.mem_ctrls.wrQLenPdf::3                       1                       # What write queue length does an incoming req see
system.mem_ctrls.wrQLenPdf::4                       1                       # What write queue length does an incoming req see
system.mem_ctrls.wrQLenPdf::5                       1                       # What write queue length does an incoming req see
system.mem_ctrls.wrQLenPdf::6                       1                       # What write queue length does an incoming req see
system.mem_ctrls.wrQLenPdf::7                       1                       # What write queue length does an incoming req see
system.mem_ctrls.wrQLenPdf::8                       1                       # What write queue length does an incoming req see
system.mem_ctrls.wrQLenPdf::9                       1                       # What write queue length does an incoming req see
system.mem_ctrls.wrQLenPdf::10                      1                       # What write queue length does an incoming req see
system.mem_ctrls.wrQLenPdf::11                      1                       # What write queue length does an incoming req see
system.mem_ctrls.wrQLenPdf::12                      1                       # What write queue length does an incoming req see
system.mem_ctrls.wrQLenPdf::13                      1                       # What write queue length does an incoming req see
system.mem_ctrls.wrQLenPdf::14                      1                       # What write queue length does an incoming req see
[...]
system.cpu.dcache.overall_misses::total          3145                       # number of overall misses
system.cpu.dcache.demand_miss_latency::.cpu.data    154360998                       # number of demand (read+write) miss cycles
system.cpu.dcache.demand_miss_latency::total    154360998                       # number of demand (read+write) miss cycles
system.cpu.dcache.overall_miss_latency::.cpu.data    154360998                       # number of overall miss cycles
system.cpu.dcache.overall_miss_latency::total    154360998                       # number of overall miss cycles
system.cpu.dcache.demand_accesses::.cpu.data       436940                       # number of demand (read+write) accesses
system.cpu.dcache.demand_accesses::total       436940                       # number of demand (read+write) accesses
system.cpu.dcache.overall_accesses::.cpu.data       436946                       # number of overall (read+write) accesses
system.cpu.dcache.overall_accesses::total       436946                       # number of overall (read+write) accesses
system.cpu.dcache.demand_miss_rate::.cpu.data     0.007193                       # miss rate for demand accesses
system.cpu.dcache.demand_miss_rate::total     0.007193                       # miss rate for demand accesses
system.cpu.dcache.overall_miss_rate::.cpu.data     0.007198                       # miss rate for overall accesses
system.cpu.dcache.overall_miss_rate::total     0.007198                       # miss rate for overall accesses
system.cpu.dcache.demand_avg_miss_latency::.cpu.data 49112.630608                       # average overall miss latency
system.cpu.dcache.demand_avg_miss_latency::total 49112.630608                       # average overall miss latency
system.cpu.dcache.overall_avg_miss_latency::.cpu.data 49081.398410                       # average overall miss latency
system.cpu.dcache.overall_avg_miss_latency::total 49081.398410                       # average overall miss latency
system.cpu.dcache.blocked_cycles::no_mshrs          265                       # number of cycles access was blocked
system.cpu.dcache.blocked_cycles::no_targets            0                       # number of cycles access was blocked
system.cpu.dcache.blocked::no_mshrs                 7                       # number of cycles access was blocked
system.cpu.dcache.blocked::no_targets               0                       # number of cycles access was blocked
system.cpu.dcache.avg_blocked_cycles::no_mshrs    37.857143                       # average number of cycles each access was blocked
system.cpu.dcache.avg_blocked_cycles::no_targets          nan                       # average number of cycles each access was blocked
system.cpu.dcache.writebacks::.writebacks            1                       # number of writebacks
system.cpu.dcache.writebacks::total                 1                       # number of writebacks
system.cpu.dcache.demand_mshr_hits::.cpu.data         2707                       # number of demand (read+write) MSHR hits
system.cpu.dcache.demand_mshr_hits::total         2707                       # number of demand (read+write) MSHR hits
system.cpu.dcache.overall_mshr_hits::.cpu.data         2707                       # number of overall MSHR hits
system.cpu.dcache.overall_mshr_hits::total         2707                       # number of overall MSHR hits
system.cpu.dcache.demand_mshr_misses::.cpu.data          436                       # number of demand (read+write) MSHR misses
system.cpu.dcache.demand_mshr_misses::total          436                       # number of demand (read+write) MSHR misses
system.cpu.dcache.overall_mshr_misses::.cpu.data          438                       # number of overall MSHR misses
system.cpu.dcache.overall_mshr_misses::total          438                       # number of overall MSHR misses
system.cpu.dcache.demand_mshr_miss_latency::.cpu.data     24680499                       # number of demand (read+write) MSHR miss cycles
system.cpu.dcache.demand_mshr_miss_latency::total     24680499                       # number of demand (read+write) MSHR miss cycles
system.cpu.dcache.overall_mshr_miss_latency::.cpu.data     24822499                       # number of overall MSHR miss cycles
system.cpu.dcache.overall_mshr_miss_latency::total     24822499                       # number of overall MSHR miss cycles
system.cpu.dcache.demand_mshr_miss_rate::.cpu.data     0.000998                       # mshr miss rate for demand accesses
system.cpu.dcache.demand_mshr_miss_rate::total     0.000998                       # mshr miss rate for demand accesses
system.cpu.dcache.overall_mshr_miss_rate::.cpu.data     0.001002                       # mshr miss rate for overall accesses
system.cpu.dcache.overall_mshr_miss_rate::total     0.001002                       # mshr miss rate for overall accesses
system.cpu.dcache.demand_avg_mshr_miss_latency::.cpu.data 56606.649083                       # average overall mshr miss latency
system.cpu.dcache.demand_avg_mshr_miss_latency::total 56606.649083                       # average overall mshr miss latency
system.cpu.dcache.overall_avg_mshr_miss_latency::.cpu.data 56672.372146                       # average overall mshr miss latency
system.cpu.dcache.overall_avg_mshr_miss_latency::total 56672.372146                       # average overall mshr miss latency
system.cpu.dcache.replacements                      4                       # number of replacements
system.cpu.dcache.ReadReq_hits::.cpu.data       330822                       # number of ReadReq hits
system.cpu.dcache.ReadReq_hits::total          330822                       # number of ReadReq hits
system.cpu.dcache.ReadReq_misses::.cpu.data         2739                       # number of ReadReq misses
system.cpu.dcache.ReadReq_misses::total          2739                       # number of ReadReq misses
system.cpu.dcache.ReadReq_miss_latency::.cpu.data    130513500                       # number of ReadReq miss cycles
system.cpu.dcache.ReadReq_miss_latency::total    130513500                       # number of ReadReq miss cycles
system.cpu.dcache.ReadReq_accesses::.cpu.data       333561                       # number of ReadReq accesses(hits+misses)
system.cpu.dcache.ReadReq_accesses::total       333561                       # number of ReadReq accesses(hits+misses)
system.cpu.dcache.ReadReq_miss_rate::.cpu.data     0.008211                       # miss rate for ReadReq accesses
system.cpu.dcache.ReadReq_miss_rate::total     0.008211                       # miss rate for ReadReq accesses
system.cpu.dcache.ReadReq_avg_miss_latency::.cpu.data 47650.054765                       # average ReadReq miss latency
system.cpu.dcache.ReadReq_avg_miss_latency::total 47650.054765                       # average ReadReq miss latency
system.cpu.dcache.ReadReq_mshr_hits::.cpu.data         2396                       # number of ReadReq MSHR hits
system.cpu.dcache.ReadReq_mshr_hits::total         2396                       # number of ReadReq MSHR hits
system.cpu.dcache.ReadReq_mshr_misses::.cpu.data          343                       # number of ReadReq MSHR misses
system.cpu.dcache.ReadReq_mshr_misses::total          343                       # number of ReadReq MSHR misses
system.cpu.dcache.ReadReq_mshr_miss_latency::.cpu.data     19004500                       # number of ReadReq MSHR miss cycles
system.cpu.dcache.ReadReq_mshr_miss_latency::total     19004500                       # number of ReadReq MSHR miss cycles
system.cpu.dcache.ReadReq_mshr_miss_rate::.cpu.data     0.001028                       # mshr miss rate for ReadReq accesses
system.cpu.dcache.ReadReq_mshr_miss_rate::total     0.001028                       # mshr miss rate for ReadReq accesses
system.cpu.dcache.ReadReq_avg_mshr_miss_latency::.cpu.data 55406.705539                       # average ReadReq mshr miss latency
system.cpu.dcache.ReadReq_avg_mshr_miss_latency::total 55406.705539                       # average ReadReq mshr miss latency
system.cpu.dcache.WriteReq_hits::.cpu.data       102975                       # number of WriteReq hits
system.cpu.dcache.WriteReq_hits::total         102975                       # number of WriteReq hits
system.cpu.dcache.WriteReq_misses::.cpu.data          397                       # number of WriteReq misses
system.cpu.dcache.WriteReq_misses::total          397                       # number of WriteReq misses
system.cpu.dcache.WriteReq_miss_latency::.cpu.data     23774498                       # number of WriteReq miss cycles
system.cpu.dcache.WriteReq_miss_latency::total     23774498                       # number of WriteReq miss cycles
system.cpu.dcache.WriteReq_accesses::.cpu.data       103372                       # number of WriteReq accesses(hits+misses)
system.cpu.dcache.WriteReq_accesses::total       103372                       # number of WriteReq accesses(hits+misses)
system.cpu.dcache.WriteReq_miss_rate::.cpu.data     0.003840                       # miss rate for WriteReq accesses
system.cpu.dcache.WriteReq_miss_rate::total     0.003840                       # miss rate for WriteReq accesses
system.cpu.dcache.WriteReq_avg_miss_latency::.cpu.data 59885.385390                       # average WriteReq miss latency
system.cpu.dcache.WriteReq_avg_miss_latency::total 59885.385390                       # average WriteReq miss latency
system.cpu.dcache.WriteReq_mshr_hits::.cpu.data          311                       # number of WriteReq MSHR hits
system.cpu.dcache.WriteReq_mshr_hits::total          311                       # number of WriteReq MSHR hits
system.cpu.dcache.WriteReq_mshr_misses::.cpu.data           86                       # number of WriteReq MSHR misses
system.cpu.dcache.WriteReq_mshr_misses::total           86                       # number of WriteReq MSHR misses
system.cpu.dcache.WriteReq_mshr_miss_latency::.cpu.data      5609999                       # number of WriteReq MSHR miss cycles
system.cpu.dcache.WriteReq_mshr_miss_latency::total      5609999                       # number of WriteReq MSHR miss cycles
system.cpu.dcache.WriteReq_mshr_miss_rate::.cpu.data     0.000832                       # mshr miss rate for WriteReq accesses
system.cpu.dcache.WriteReq_mshr_miss_rate::total     0.000832                       # mshr miss rate for WriteReq accesses
system.cpu.dcache.WriteReq_avg_mshr_miss_latency::.cpu.data 65232.546512                       # average WriteReq mshr miss latency
system.cpu.dcache.WriteReq_avg_mshr_miss_latency::total 65232.546512                       # average WriteReq mshr miss latency
system.cpu.dcache.SoftPFReq_hits::.cpu.data            4                       # number of SoftPFReq hits
system.cpu.dcache.SoftPFReq_hits::total             4                       # number of SoftPFReq hits
system.cpu.dcache.SoftPFReq_misses::.cpu.data            2                       # number of SoftPFReq misses
system.cpu.dcache.SoftPFReq_misses::total            2                       # number of SoftPFReq misses
system.cpu.dcache.SoftPFReq_accesses::.cpu.data            6                       # number of SoftPFReq accesses(hits+misses)
system.cpu.dcache.SoftPFReq_accesses::total            6                       # number of SoftPFReq accesses(hits+misses)
system.cpu.dcache.SoftPFReq_miss_rate::.cpu.data     0.333333                       # miss rate for SoftPFReq accesses
system.cpu.dcache.SoftPFReq_miss_rate::total     0.333333                       # miss rate for SoftPFReq accesses
system.cpu.dcache.SoftPFReq_mshr_misses::.cpu.data            2                       # number of SoftPFReq MSHR misses
system.cpu.dcache.SoftPFReq_mshr_misses::total            2                       # number of SoftPFReq MSHR misses
system.cpu.dcache.SoftPFReq_mshr_miss_latency::.cpu.data       142000                       # number of SoftPFReq MSHR miss cycles
system.cpu.dcache.SoftPFReq_mshr_miss_latency::total       142000                       # number of SoftPFReq MSHR miss cycles
system.cpu.dcache.SoftPFReq_mshr_miss_rate::.cpu.data     0.333333                       # mshr miss rate for SoftPFReq accesses
system.cpu.dcache.SoftPFReq_mshr_miss_rate::total     0.333333                       # mshr miss rate for SoftPFReq accesses
system.cpu.dcache.SoftPFReq_avg_mshr_miss_latency::.cpu.data        71000                       # average SoftPFReq mshr miss latency
system.cpu.dcache.SoftPFReq_avg_mshr_miss_latency::total        71000                       # average SoftPFReq mshr miss latency
system.cpu.dcache.WriteLineReq_misses::.cpu.data            7                       # number of WriteLineReq misses
system.cpu.dcache.WriteLineReq_misses::total            7                       # number of WriteLineReq misses
system.cpu.dcache.WriteLineReq_miss_latency::.cpu.data        73000                       # number of WriteLineReq miss cycles
system.cpu.dcache.WriteLineReq_miss_latency::total        73000                       # number of WriteLineReq miss cycles
system.cpu.dcache.WriteLineReq_accesses::.cpu.data            7                       # number of WriteLineReq accesses(hits+misses)
system.cpu.dcache.WriteLineReq_accesses::total            7                       # number of WriteLineReq accesses(hits+misses)
system.cpu.dcache.WriteLineReq_miss_rate::.cpu.data            1                       # miss rate for WriteLineReq accesses
system.cpu.dcache.WriteLineReq_miss_rate::total            1                       # miss rate for WriteLineReq accesses
system.cpu.dcache.WriteLineReq_avg_miss_latency::.cpu.data 10428.571429                       # average WriteLineReq miss latency
system.cpu.dcache.WriteLineReq_avg_miss_latency::total 10428.571429                       # average WriteLineReq miss latency
system.cpu.dcache.WriteLineReq_mshr_misses::.cpu.data            7                       # number of WriteLineReq MSHR misses
system.cpu.dcache.WriteLineReq_mshr_misses::total            7                       # number of WriteLineReq MSHR misses
system.cpu.dcache.WriteLineReq_mshr_miss_latency::.cpu.data        66000                       # number of WriteLineReq MSHR miss cycles
system.cpu.dcache.WriteLineReq_mshr_miss_latency::total        66000                       # number of WriteLineReq MSHR miss cycles
system.cpu.dcache.WriteLineReq_mshr_miss_rate::.cpu.data            1                       # mshr miss rate for WriteLineReq accesses
system.cpu.dcache.WriteLineReq_mshr_miss_rate::total            1                       # mshr miss rate for WriteLineReq accesses
system.cpu.dcache.WriteLineReq_avg_mshr_miss_latency::.cpu.data  9428.571429                       # average WriteLineReq mshr miss latency
system.cpu.dcache.WriteLineReq_avg_mshr_miss_latency::total  9428.571429                       # average WriteLineReq mshr miss latency
system.cpu.dcache.LoadLockedReq_hits::.cpu.data           14                       # number of LoadLockedReq hits
system.cpu.dcache.LoadLockedReq_hits::total           14                       # number of LoadLockedReq hits
system.cpu.dcache.LoadLockedReq_misses::.cpu.data            2                       # number of LoadLockedReq misses
system.cpu.dcache.LoadLockedReq_misses::total            2                       # number of LoadLockedReq misses
system.cpu.dcache.LoadLockedReq_miss_latency::.cpu.data       109000                       # number of LoadLockedReq miss cycles
system.cpu.dcache.LoadLockedReq_miss_latency::total       109000                       # number of LoadLockedReq miss cycles
system.cpu.dcache.LoadLockedReq_accesses::.cpu.data           16                       # number of LoadLockedReq accesses(hits+misses)
system.cpu.dcache.LoadLockedReq_accesses::total           16                       # number of LoadLockedReq accesses(hits+misses)
system.cpu.dcache.LoadLockedReq_miss_rate::.cpu.data     0.125000                       # miss rate for LoadLockedReq accesses
system.cpu.dcache.LoadLockedReq_miss_rate::total     0.125000                       # miss rate for LoadLockedReq accesses
system.cpu.dcache.LoadLockedReq_avg_miss_latency::.cpu.data        54500                       # average LoadLockedReq miss latency
system.cpu.dcache.LoadLockedReq_avg_miss_latency::total        54500                       # average LoadLockedReq miss latency
system.cpu.dcache.LoadLockedReq_mshr_hits::.cpu.data            1                       # number of LoadLockedReq MSHR hits
system.cpu.dcache.LoadLockedReq_mshr_hits::total            1                       # number of LoadLockedReq MSHR hits
system.cpu.dcache.LoadLockedReq_mshr_misses::.cpu.data            1                       # number of LoadLockedReq MSHR misses
system.cpu.dcache.LoadLockedReq_mshr_misses::total            1                       # number of LoadLockedReq MSHR misses
system.cpu.dcache.LoadLockedReq_mshr_miss_latency::.cpu.data        50500                       # number of LoadLockedReq MSHR miss cycles
system.cpu.dcache.LoadLockedReq_mshr_miss_latency::total        50500                       # number of LoadLockedReq MSHR miss cycles
system.cpu.dcache.LoadLockedReq_mshr_miss_rate::.cpu.data     0.062500                       # mshr miss rate for LoadLockedReq accesses
system.cpu.dcache.LoadLockedReq_mshr_miss_rate::total     0.062500                       # mshr miss rate for LoadLockedReq accesses
system.cpu.dcache.LoadLockedReq_avg_mshr_miss_latency::.cpu.data        50500                       # average LoadLockedReq mshr miss latency
system.cpu.dcache.LoadLockedReq_avg_mshr_miss_latency::total        50500                       # average LoadLockedReq mshr miss latency
system.cpu.dcache.StoreCondReq_hits::.cpu.data           14                       # number of StoreCondReq hits
system.cpu.dcache.StoreCondReq_hits::total           14                       # number of StoreCondReq hits
system.cpu.dcache.StoreCondReq_accesses::.cpu.data           14                       # number of StoreCondReq accesses(hits+misses)
system.cpu.dcache.StoreCondReq_accesses::total           14                       # number of StoreCondReq accesses(hits+misses)
system.cpu.dcache.tags.pwrStateResidencyTicks::UNDEFINED    438905000                       # Cumulative time (in ticks) in various power states
system.cpu.dcache.tags.tagsinuse           399.282362                       # Cycle average of tags in use
system.cpu.dcache.tags.total_refs              434268                       # Total number of references to valid blocks.
system.cpu.dcache.tags.sampled_refs               439                       # Sample count of references to valid blocks.
system.cpu.dcache.tags.avg_refs            989.220957                       # Average number of references to valid blocks.
system.cpu.dcache.tags.warmup_cycle            147000                       # Cycle when the warmup percentage was hit.
system.cpu.dcache.tags.occ_blocks::.cpu.data   399.282362                       # Average occupied blocks per requestor
system.cpu.dcache.tags.occ_percent::.cpu.data     0.389924                       # Average percentage of cache occupancy
system.cpu.dcache.tags.occ_percent::total     0.389924                       # Average percentage of cache occupancy
system.cpu.dcache.tags.occ_task_id_blocks::1024          435                       # Occupied blocks per task id
system.cpu.dcache.tags.age_task_id_blocks_1024::0           21                       # Occupied blocks per task id
system.cpu.dcache.tags.age_task_id_blocks_1024::2          414                       # Occupied blocks per task id
system.cpu.dcache.tags.occ_task_id_percent::1024     0.424805                       # Percentage of cache occupancy per task id
system.cpu.dcache.tags.tag_accesses            874391                       # Number of tag accesses
system.cpu.dcache.tags.data_accesses           874391                       # Number of data accesses

---------- End Simulation Statistics   ----------
